*Heading
** Job name: vibration Model name: Model-1
** Generated by: Abaqus/CAE 2025
*Preprint, echo=NO, model=NO, history=NO, contact=NO
**
** PARTS
**
*Part, name=plaque
*Node
      1,        370.5,          25.,           0.
      2,         375.,         20.5,           0.
      3,        379.5,          25.,           0.
      4,         375.,         29.5,           0.
      5,         20.5,          25.,           0.
      6,          25.,         20.5,           0.
      7,         29.5,          25.,           0.
      8,          25.,         29.5,           0.
      9,         29.5,         375.,           0.
     10,          25.,        379.5,           0.
     11,         20.5,         375.,           0.
     12,          25.,        370.5,           0.
     13,        379.5,         375.,           0.
     14,         375.,        379.5,           0.
     15,        370.5,         375.,           0.
     16,         375.,        370.5,           0.
     17,         400.,           0.,           0.
     18,           0.,           0.,           0.
     19,         400.,         400.,           0.
     20,           0.,         400.,           0.
** ... 555 like lines cut
*Element, type=S3
 1,  99,   6,   5
 2, 114,  96,  95
 3, 119,  39,  38
 4,  97,  11,  10
 5,  14, 100, 111
 6, 115,  97,  10
 7,   9, 115,  10
 8, 120,  99,   5
 9,   8, 120,   5
10, 542,  98,   2
11, 117,  58,  57
12, 101, 141, 110
13, 123, 115, 103
14, 561, 152, 134
15, 493, 486, 454
16, 530, 504, 508
17, 534, 532, 524
18, 100, 541,  40
19,   2,  98,   3
20, 551, 121, 105
** ... 4 like lines cut
*Element, type=S4R
 25, 542,  22,  21,  98
 26,  78,  99, 120,  79
 27, 116,  12, 108, 124
 28, 166,  31,  30, 168
 29,   8,   7, 118, 545
 30, 544, 117, 164, 550
 31, 118,   7, 106, 126
 32, 119, 106,   7,   6
 33,   4, 113, 543,   1
 34, 138, 129, 133, 153
 35, 307, 232, 237, 320
 36, 104, 109,  15, 547
 37, 111, 547,  15,  14
 38,  77,  76, 111, 100
 39,  59,  97, 115,  60
 40,   9,  12, 116, 546
 41, 108, 114,  95, 162
 42, 139, 130, 135, 263
 43, 102, 113,   4, 544
 44,  41,  40, 541, 110
** ... 498 like lines cut
*Nset, nset=_PickedSet2, internal, generate
   1,  575,    1
*Elset, elset=_PickedSet2, internal, generate
   1,  542,    1
** Section: tole
*Shell Section, elset=_PickedSet2, material=acier
1., 5
*End Part
**  
**
** ASSEMBLY
**
*Assembly, name=Assembly
**  
*Instance, name=plaque-1, part=plaque
*End Instance
**  
*Node
      1,          25.,         375.,           0.
*Node
      2,          25.,          25.,           0.
*Node
      3,         375.,          25.,           0.
*Node
      4,         375.,         375.,           0.
*Nset, nset=_PickedSet9, internal
 1,
*Nset, nset=_PickedSet11, internal
 2,
*Nset, nset=_PickedSet13, internal
 3,
*Nset, nset=_PickedSet15, internal
 4,
*Nset, nset=_PickedSet16, internal, generate
 1,  4,  1
*Elset, elset=__PickedSurf8_E2, internal, instance=plaque-1
 4,
*Elset, elset=__PickedSurf8_E3, internal, instance=plaque-1
 7,
*Elset, elset=__PickedSurf8_E1, internal, instance=plaque-1
 40, 90
*Surface, type=ELEMENT, name=_PickedSurf8, internal
__PickedSurf8_E2, E2
__PickedSurf8_E3, E3
__PickedSurf8_E1, E1
*Elset, elset=__PickedSurf10_E2, internal, instance=plaque-1
 1,
*Elset, elset=__PickedSurf10_E3, internal, instance=plaque-1
  9, 32
*Elset, elset=__PickedSurf10_E1, internal, instance=plaque-1
 29,
*Surface, type=ELEMENT, name=_PickedSurf10, internal
__PickedSurf10_E2, E2
__PickedSurf10_E3, E3
__PickedSurf10_E1, E1
*Elset, elset=__PickedSurf12_E3, internal, instance=plaque-1
 19,
*Elset, elset=__PickedSurf12_E4, internal, instance=plaque-1
 33,
*Elset, elset=__PickedSurf12_E2, internal, instance=plaque-1
 47,
*Elset, elset=__PickedSurf12_E1, internal, instance=plaque-1
 70,
*Surface, type=ELEMENT, name=_PickedSurf12, internal
__PickedSurf12_E3, E3
__PickedSurf12_E4, E4
__PickedSurf12_E2, E2
__PickedSurf12_E1, E1
*Elset, elset=__PickedSurf14_E3, internal, instance=plaque-1
 37,
*Elset, elset=__PickedSurf14_E4, internal, instance=plaque-1
 59, 61, 94
*Surface, type=ELEMENT, name=_PickedSurf14, internal
__PickedSurf14_E3, E3
__PickedSurf14_E4, E4
** Constraint: Constraint-1
*Coupling, constraint name=Constraint-1, ref node=_PickedSet9, surface=_PickedSurf8
*Kinematic
** Constraint: Constraint-2
*Coupling, constraint name=Constraint-2, ref node=_PickedSet11, surface=_PickedSurf10
*Kinematic
** Constraint: Constraint-3
*Coupling, constraint name=Constraint-3, ref node=_PickedSet13, surface=_PickedSurf12
*Kinematic
** Constraint: Constraint-4
*Coupling, constraint name=Constraint-4, ref node=_PickedSet15, surface=_PickedSurf14
*Kinematic
*End Assembly
** 
** MATERIALS
** 
*Material, name=acier
*Density
 7.86e-09,
*Elastic
210000., 0.26
** ----------------------------------------------------------------
** 
** STEP: analyse_modale
** 
*Step, name=analyse_modale, nlgeom=NO, perturbation
*Frequency, eigensolver=Lanczos, sim, acoustic coupling=on, normalization=mass
, , 500., , , 
** 
** BOUNDARY CONDITIONS
** 
** Name: blocage Type: Symmetry/Antisymmetry/Encastre
*Boundary
_PickedSet16, ENCASTRE
** 
** OUTPUT REQUESTS
** 
*Restart, write, frequency=0
** 
** FIELD OUTPUT: F-Output-1
** 
*Output, field
*Node Output, variable=PRESELECT
** 
** HISTORY OUTPUT: H-Output-1
** 
*Output, history
*Energy Output, variable=ALL
*End Step
