*Heading
** Job name: vibration Model name: Model-1
** Generated by: Abaqus/CAE 2025
*Preprint, echo=NO, model=NO, history=NO, contact=NO
**
** PARTS
**
*Part, name=plaque
*Node
      1,    272.17157,    127.82843,           0.
      2,         271.,         125.,           0.
      3,    272.17157,    122.17157,           0.
      4,         275.,         121.,           0.
      5,    277.82843,    122.17157,           0.
      6,         279.,         125.,           0.
      7,    277.82843,    127.82843,           0.
      8,         275.,         129.,           0.
      9,    122.17157,    127.82843,           0.
     10,         121.,         125.,           0.
     11,    122.17157,    122.17157,           0.
     12,         125.,         121.,           0.
     13,    127.82843,    122.17157,           0.
     14,         129.,         125.,           0.
     15,    127.82843,    127.82843,           0.
     16,         125.,         129.,           0.
     17,    127.82843,    272.17157,           0.
     18,         129.,         275.,           0.
     19,    127.82843,    277.82843,           0.
     20,         125.,         279.,           0.
** ... 3372 like lines cut
*Element, type=S3
  1,  195,  117,  162
  2, 3078, 3077,  676
  3,  253,  190,  234
  4,  300,  233,  267
  5,  341,  304,  276
  6,  259,  191,  216
  7,  196,  294,  224
  8, 2951, 2915,  299
  9,  680,  571,  442
 10,  739,  602,  672
 11, 2997,  530,  413
 12,  452,  449,  391
 13,  495,  434,  483
 14, 2975,  334,  290
 15,  926,  664,  748
 16,  458,  527,  355
 17,  457,  400,  362
 18,  466,  315,  398
 19,  450,  412,  390
 20,  621,  470,  537
** ... 94 like lines cut
*Element, type=S4R
 115,  379,  294,  256,  327
 116,  264,  292,  229,  161
 117,    5,  136,  161,  113
 118,  114,  166,    3,    2
 119,  235,  168,  187, 2902
 120,  257,  197,  232,  298
 121,  122,  163,   11,   10
 122,   94, 2875, 2785,   95
 123,   10,  123,  159,  122
 124,  124,  169,    9,   16
 125,  230,  140,  165, 2915
 126, 2907,  203,  123,  169
 127,   24,   23,  115,  146
 128, 2914,  283,  237,  164
 129,  321,  371,  284,  252
 130,  142,  153,    8,    7
 131,  406,  459,  339,  342
 132,  116,  189,  114,    2
 133,  127,  168,   13,   12
 134,  205,  166,  219, 2911
** ... 3262 like lines cut
*Nset, nset=_PickedSet2, internal, generate
    1,  3392,     1
*Elset, elset=_PickedSet2, internal, generate
    1,  3396,     1
** Section: tole
*Shell Section, elset=_PickedSet2, material=cuivre
1., 5
*End Part
**  
**
** ASSEMBLY
**
*Assembly, name=Assembly
**  
*Instance, name=plaque-1, part=plaque
*End Instance
**  
*Node
      1,         125.,         275.,           0.
*Node
      2,         125.,         125.,           0.
*Node
      3,         275.,         125.,           0.
*Node
      4,         275.,         275.,           0.
*Nset, nset=_PickedSet9, internal
 1,
*Nset, nset=_PickedSet11, internal
 2,
*Nset, nset=_PickedSet13, internal
 3,
*Nset, nset=_PickedSet15, internal
 4,
*Nset, nset=_PickedSet16, internal, generate
 1,  4,  1
*Elset, elset=__PickedSurf8_E1, internal, instance=plaque-1
 127,
*Elset, elset=__PickedSurf8_E3, internal, instance=plaque-1
 137, 141, 212
*Elset, elset=__PickedSurf8_E4, internal, instance=plaque-1
 191, 211
*Elset, elset=__PickedSurf8_E2, internal, instance=plaque-1
 223, 226
*Surface, type=ELEMENT, name=_PickedSurf8, internal
__PickedSurf8_E1, E1
__PickedSurf8_E3, E3
__PickedSurf8_E4, E4
__PickedSurf8_E2, E2
*Elset, elset=__PickedSurf10_E3, internal, instance=plaque-1
 121, 124, 133, 222
*Elset, elset=__PickedSurf10_E4, internal, instance=plaque-1
 208,
*Elset, elset=__PickedSurf10_E2, internal, instance=plaque-1
 228, 230, 233
*Surface, type=ELEMENT, name=_PickedSurf10, internal
__PickedSurf10_E3, E3
__PickedSurf10_E4, E4
__PickedSurf10_E2, E2
*Elset, elset=__PickedSurf12_E3, internal, instance=plaque-1
 118, 130, 161, 181
*Elset, elset=__PickedSurf12_E4, internal, instance=plaque-1
 135,
*Elset, elset=__PickedSurf12_E2, internal, instance=plaque-1
 218, 219, 221
*Surface, type=ELEMENT, name=_PickedSurf12, internal
__PickedSurf12_E3, E3
__PickedSurf12_E4, E4
__PickedSurf12_E2, E2
*Elset, elset=__PickedSurf14_E4, internal, instance=plaque-1
 138,
*Elset, elset=__PickedSurf14_E3, internal, instance=plaque-1
 144, 151, 153, 196
*Elset, elset=__PickedSurf14_E2, internal, instance=plaque-1
 237, 240, 241
*Surface, type=ELEMENT, name=_PickedSurf14, internal
__PickedSurf14_E4, E4
__PickedSurf14_E3, E3
__PickedSurf14_E2, E2
** Constraint: Constraint-1
*Coupling, constraint name=Constraint-1, ref node=_PickedSet9, surface=_PickedSurf8
*Kinematic
** Constraint: Constraint-2
*Coupling, constraint name=Constraint-2, ref node=_PickedSet11, surface=_PickedSurf10
*Kinematic
** Constraint: Constraint-3
*Coupling, constraint name=Constraint-3, ref node=_PickedSet13, surface=_PickedSurf12
*Kinematic
** Constraint: Constraint-4
*Coupling, constraint name=Constraint-4, ref node=_PickedSet15, surface=_PickedSurf14
*Kinematic
*End Assembly
** 
** MATERIALS
** 
*Material, name=cuivre
*Density
 8.96e-09,
*Elastic
124000., 0.36
** ----------------------------------------------------------------
** 
** STEP: analyse_modale
** 
*Step, name=analyse_modale, nlgeom=NO, perturbation
*Frequency, eigensolver=Lanczos, sim, acoustic coupling=on, normalization=mass
, , 500., , , 
** 
** BOUNDARY CONDITIONS
** 
** Name: blocage Type: Symmetry/Antisymmetry/Encastre
*Boundary
_PickedSet16, ENCASTRE
** 
** OUTPUT REQUESTS
** 
*Restart, write, frequency=0
** 
** FIELD OUTPUT: F-Output-1
** 
*Output, field
*Node Output, variable=PRESELECT
** 
** HISTORY OUTPUT: H-Output-1
** 
*Output, history
*Energy Output, variable=ALL
*End Step
