*Heading
** Job name: vibration Model name: Model-1
** Generated by: Abaqus/CAE 2025
*Preprint, echo=NO, model=NO, history=NO, contact=NO
**
** PARTS
**
*Part, name=plaque
*Node
      1,    262.17157,    137.82843,           0.
      2,         261.,         135.,           0.
      3,    262.17157,    132.17157,           0.
      4,         265.,         131.,           0.
      5,    267.82843,    132.17157,           0.
      6,         269.,         135.,           0.
      7,    267.82843,    137.82843,           0.
      8,         265.,         139.,           0.
      9,    132.17157,    137.82843,           0.
     10,         131.,         135.,           0.
     11,    132.17157,    132.17157,           0.
     12,         135.,         131.,           0.
     13,    137.82843,    132.17157,           0.
     14,         139.,         135.,           0.
     15,    137.82843,    137.82843,           0.
     16,         135.,         139.,           0.
     17,    137.82843,    262.17157,           0.
     18,         139.,         265.,           0.
     19,    137.82843,    267.82843,           0.
     20,         135.,         269.,           0.
** ... 3217 like lines cut
*Element, type=S3
  1,  228,  122,  168
  2,  202,  134,  171
  3, 2737,  329,  511
  4,  249,  186,  235
  5,  248,  187,  234
  6, 2708, 2688,  215
  7,  257,  191,  216
  8,  382, 2671,  296
  9, 2747,  259,  283
 10, 2757,  505,  582
 11,  497,  437,  383
 12,  454,  520,  347
 13, 2736,  484,  527
 14,  486,  315,  367
 15,  417, 2734,  304
 16, 1021,  706,  775
 17,  492,  381,  431
 18, 2739,  502,  353
 19,  525,  416,  483
 20,  520,  610,  402
** ... 88 like lines cut
*Element, type=S4R
 109,  117,  193, 2691,  167
 110,  193,  288,  256, 2691
 111,  261,  287,  225,  162
 112,    5,  135,  162,  113
 113,  325,  261,  294,  380
 114,  116,  165,    3,    2
 115, 2695, 2694, 2704,  263
 116,  260,  196,  222,  284
 117,  122,  164,   11,   10
 118,  323,  255,  228,  291
 119, 2510, 2666, 2612, 2631
 120,   10,  123,  168,  122
 121,  192,  124,  152,  258
 122,   23,  136,  142,  114
 123,  125,  152,  124,   16
 124,  124,  160,    9,   16
 125,  271,  333,  300,  212
 126,  470,  414,  515,  587
 127,  154,  141,  185,  210
 128,   14,  126,  153,  182
** ... 3110 like lines cut
*Nset, nset=_PickedSet2, internal, generate
    1,  3237,     1
*Elset, elset=_PickedSet2, internal, generate
    1,  3238,     1
** Section: tole
*Shell Section, elset=_PickedSet2, material=aluminium
4., 5
*End Part
**  
**
** ASSEMBLY
**
*Assembly, name=Assembly
**  
*Instance, name=plaque-1, part=plaque
*End Instance
**  
*Node
      1,         135.,         265.,           0.
*Node
      2,         135.,         135.,           0.
*Node
      3,         265.,         135.,           0.
*Node
      4,         265.,         265.,           0.
*Nset, nset=_PickedSet9, internal
 1,
*Nset, nset=_PickedSet11, internal
 2,
*Nset, nset=_PickedSet13, internal
 3,
*Nset, nset=_PickedSet15, internal
 4,
*Nset, nset=_PickedSet16, internal, generate
 1,  4,  1
*Elset, elset=__PickedSurf8_E3, internal, instance=plaque-1
 135, 141, 146, 206
*Elset, elset=__PickedSurf8_E4, internal, instance=plaque-1
 140,
*Elset, elset=__PickedSurf8_E2, internal, instance=plaque-1
 212, 217, 220
*Surface, type=ELEMENT, name=_PickedSurf8, internal
__PickedSurf8_E3, E3
__PickedSurf8_E4, E4
__PickedSurf8_E2, E2
*Elset, elset=__PickedSurf10_E3, internal, instance=plaque-1
 117, 124, 129, 162
*Elset, elset=__PickedSurf10_E2, internal, instance=plaque-1
 221, 222, 224, 227
*Surface, type=ELEMENT, name=_PickedSurf10, internal
__PickedSurf10_E3, E3
__PickedSurf10_E2, E2
*Elset, elset=__PickedSurf12_E3, internal, instance=plaque-1
 114, 133, 134
*Elset, elset=__PickedSurf12_E4, internal, instance=plaque-1
 177,
*Elset, elset=__PickedSurf12_E2, internal, instance=plaque-1
 211, 213, 214, 239
*Surface, type=ELEMENT, name=_PickedSurf12, internal
__PickedSurf12_E3, E3
__PickedSurf12_E4, E4
__PickedSurf12_E2, E2
*Elset, elset=__PickedSurf14_E3, internal, instance=plaque-1
 136, 149, 174
*Elset, elset=__PickedSurf14_E2, internal, instance=plaque-1
 232, 234, 235, 238
*Elset, elset=__PickedSurf14_E1, internal, instance=plaque-1
 233,
*Surface, type=ELEMENT, name=_PickedSurf14, internal
__PickedSurf14_E3, E3
__PickedSurf14_E2, E2
__PickedSurf14_E1, E1
** Constraint: Constraint-1
*Coupling, constraint name=Constraint-1, ref node=_PickedSet9, surface=_PickedSurf8
*Kinematic
** Constraint: Constraint-2
*Coupling, constraint name=Constraint-2, ref node=_PickedSet11, surface=_PickedSurf10
*Kinematic
** Constraint: Constraint-3
*Coupling, constraint name=Constraint-3, ref node=_PickedSet13, surface=_PickedSurf12
*Kinematic
** Constraint: Constraint-4
*Coupling, constraint name=Constraint-4, ref node=_PickedSet15, surface=_PickedSurf14
*Kinematic
*End Assembly
** 
** MATERIALS
** 
*Material, name=aluminium
*Density
 2.7e-09,
*Elastic
69000., 0.33
** ----------------------------------------------------------------
** 
** STEP: analyse_modale
** 
*Step, name=analyse_modale, nlgeom=NO, perturbation
*Frequency, eigensolver=Lanczos, sim, acoustic coupling=on, normalization=mass
, , 500., , , 
** 
** BOUNDARY CONDITIONS
** 
** Name: blocage Type: Symmetry/Antisymmetry/Encastre
*Boundary
_PickedSet16, ENCASTRE
** 
** OUTPUT REQUESTS
** 
*Restart, write, frequency=0
** 
** FIELD OUTPUT: F-Output-1
** 
*Output, field
*Node Output, variable=PRESELECT
** 
** HISTORY OUTPUT: H-Output-1
** 
*Output, history
*Energy Output, variable=ALL
*End Step
