*Heading
** Job name: vibration Model name: Model-1
** Generated by: Abaqus/CAE 2025
*Preprint, echo=NO, model=NO, history=NO, contact=NO
**
** PARTS
**
*Part, name=plaque
*Node
      1,    252.17157,    147.82843,           0.
      2,         251.,         145.,           0.
      3,    252.17157,    142.17157,           0.
      4,         255.,         141.,           0.
      5,    257.82843,    142.17157,           0.
      6,         259.,         145.,           0.
      7,    257.82843,    147.82843,           0.
      8,         255.,         149.,           0.
      9,    142.17157,    147.82843,           0.
     10,         141.,         145.,           0.
     11,    142.17157,    142.17157,           0.
     12,         145.,         141.,           0.
     13,    147.82843,    142.17157,           0.
     14,         149.,         145.,           0.
     15,    147.82843,    147.82843,           0.
     16,         145.,         149.,           0.
     17,    147.82843,    252.17157,           0.
     18,         149.,         255.,           0.
     19,    147.82843,    257.82843,           0.
     20,         145.,         259.,           0.
** ... 2889 like lines cut
*Element, type=S3
  1,  258,  198,  231
  2, 1134,  872,  950
  3,  211,  123,  154
  4,  216,  135,  152
  5,  521,  442,  378
  6,  567,  459,  557
  7, 2551,  594,  440
  8,  586,  618,  522
  9,  554,  458,  455
 10,  556,  461,  457
 11, 1038,  757,  852
 12,  973,  696,  854
 13,  689, 2654,  519
 14,  896,  711,  802
 15,  730,  565,  653
 16, 2728, 2747,  650
 17,  747,  670,  581
 18,  938,  735,  822
 19, 1039,  763,  849
 20,  970,  783,  872
** ... 92 like lines cut
*Element, type=S4R
 113,  129,  143,   32,   31
 114,  155,  117,    6,  113
 115,  335,  431,  296,  268
 116,    4,  119,  159,  138
 117,  268,  229,  299,  335
 118,  197,  228, 2508,  251
 119,  119,  161,  221,  199
 120,  299,  263,  331,  385
 121,  121,  161,    3,    2
 122,    2,  122,  149,  121
 123,  123,  145,    1,    8
 124,  151,  185,  208,  179
 125,  171,   29,  114, 2482
 126,  493,  590,  523,  443
 127,  293,  256,  326,  381
 128,  136,  157,   28,   27
 129,  223,  293,  334,  205
 130,   20,  115,  156,  116
 131,  116,  173,   21,   20
 132,  206,  167,  232, 2504
** ... 2780 like lines cut
*Nset, nset=_PickedSet2, internal, generate
    1,  2909,     1
*Elset, elset=_PickedSet2, internal, generate
    1,  2912,     1
** Section: tole
*Shell Section, elset=_PickedSet2, material=aluminium
17., 5
*End Part
**  
**
** ASSEMBLY
**
*Assembly, name=Assembly
**  
*Instance, name=plaque-1, part=plaque
*End Instance
**  
*Node
      1,         145.,         255.,           0.
*Node
      2,         145.,         145.,           0.
*Node
      3,         255.,         145.,           0.
*Node
      4,         255.,         255.,           0.
*Nset, nset=_PickedSet9, internal
 1,
*Nset, nset=_PickedSet11, internal
 2,
*Nset, nset=_PickedSet13, internal
 3,
*Nset, nset=_PickedSet15, internal
 4,
*Nset, nset=_PickedSet16, internal, generate
 1,  4,  1
*Elset, elset=__PickedSurf8_E3, internal, instance=plaque-1
 131, 136, 230
*Elset, elset=__PickedSurf8_E4, internal, instance=plaque-1
 201,
*Elset, elset=__PickedSurf8_E2, internal, instance=plaque-1
 210, 227, 236
*Elset, elset=__PickedSurf8_E1, internal, instance=plaque-1
 211,
*Surface, type=ELEMENT, name=_PickedSurf8, internal
__PickedSurf8_E3, E3
__PickedSurf8_E4, E4
__PickedSurf8_E2, E2
__PickedSurf8_E1, E1
*Elset, elset=__PickedSurf10_E4, internal, instance=plaque-1
 137, 195
*Elset, elset=__PickedSurf10_E2, internal, instance=plaque-1
 216, 219, 224, 225, 229
*Elset, elset=__PickedSurf10_E1, internal, instance=plaque-1
 217,
*Surface, type=ELEMENT, name=_PickedSurf10, internal
__PickedSurf10_E4, E4
__PickedSurf10_E2, E2
__PickedSurf10_E1, E1
*Elset, elset=__PickedSurf12_E3, internal, instance=plaque-1
 121, 123, 142
*Elset, elset=__PickedSurf12_E2, internal, instance=plaque-1
 207, 215, 218, 221
*Elset, elset=__PickedSurf12_E1, internal, instance=plaque-1
 208,
*Surface, type=ELEMENT, name=_PickedSurf12, internal
__PickedSurf12_E3, E3
__PickedSurf12_E2, E2
__PickedSurf12_E1, E1
*Elset, elset=__PickedSurf14_E3, internal, instance=plaque-1
 113, 128, 149, 153
*Elset, elset=__PickedSurf14_E2, internal, instance=plaque-1
 209, 214, 238
*Elset, elset=__PickedSurf14_E1, internal, instance=plaque-1
 223,
*Surface, type=ELEMENT, name=_PickedSurf14, internal
__PickedSurf14_E3, E3
__PickedSurf14_E2, E2
__PickedSurf14_E1, E1
** Constraint: Constraint-1
*Coupling, constraint name=Constraint-1, ref node=_PickedSet9, surface=_PickedSurf8
*Kinematic
** Constraint: Constraint-2
*Coupling, constraint name=Constraint-2, ref node=_PickedSet11, surface=_PickedSurf10
*Kinematic
** Constraint: Constraint-3
*Coupling, constraint name=Constraint-3, ref node=_PickedSet13, surface=_PickedSurf12
*Kinematic
** Constraint: Constraint-4
*Coupling, constraint name=Constraint-4, ref node=_PickedSet15, surface=_PickedSurf14
*Kinematic
*End Assembly
** 
** MATERIALS
** 
*Material, name=aluminium
*Density
 2.7e-09,
*Elastic
69000., 0.33
** ----------------------------------------------------------------
** 
** STEP: analyse_modale
** 
*Step, name=analyse_modale, nlgeom=NO, perturbation
*Frequency, eigensolver=Lanczos, sim, acoustic coupling=on, normalization=mass
, , 500., , , 
** 
** BOUNDARY CONDITIONS
** 
** Name: blocage Type: Symmetry/Antisymmetry/Encastre
*Boundary
_PickedSet16, ENCASTRE
** 
** OUTPUT REQUESTS
** 
*Restart, write, frequency=0
** 
** FIELD OUTPUT: F-Output-1
** 
*Output, field
*Node Output, variable=PRESELECT
** 
** HISTORY OUTPUT: H-Output-1
** 
*Output, history
*Energy Output, variable=ALL
*End Step
