*Heading
** Job name: vibration Model name: Model-1
** Generated by: Abaqus/CAE 2025
*Preprint, echo=NO, model=NO, history=NO, contact=NO
**
** PARTS
**
*Part, name=plaque
*Node
      1,    242.17157,    157.82843,           0.
      2,         241.,         155.,           0.
      3,    242.17157,    152.17157,           0.
      4,         245.,         151.,           0.
      5,    247.82843,    152.17157,           0.
      6,         249.,         155.,           0.
      7,    247.82843,    157.82843,           0.
      8,         245.,         159.,           0.
      9,    152.17157,    157.82843,           0.
     10,         151.,         155.,           0.
     11,    152.17157,    152.17157,           0.
     12,         155.,         151.,           0.
     13,    157.82843,    152.17157,           0.
     14,         159.,         155.,           0.
     15,    157.82843,    157.82843,           0.
     16,         155.,         159.,           0.
     17,    157.82843,    242.17157,           0.
     18,         159.,         245.,           0.
     19,    157.82843,    247.82843,           0.
     20,         155.,         249.,           0.
** ... 2567 like lines cut
*Element, type=S3
 1, 1579, 1518, 1422
 2,  217,  137,  155
 3, 2269,  196,  226
 4,  264,  189,  231
 5,  282,  187,  239
 6, 2271,  355,  615
 7, 2279,  387,  284
 8,  456, 2284,  324
 9,  458, 2283,  326
10,  635,  459,  479
11,  386,  415,  290
12,  543,  303,  407
13, 2435, 2409,  681
14,  499,  362,  455
15, 2363,  602,  463
16,  478,  506,  353
17, 2369,  856,  679
18,  647,  509,  560
19, 2533, 2501, 1164
20,  766, 2395,  626
** ... 70 like lines cut
*Element, type=S4R
  91,  142,  168,  249,  221
  92,  267,  556,  407,  303
  93,  114,  161,    5,    4
  94,  543,  591,  477,  351
  95,   13,  125,  158,  124
  96,    4,  115,  170,  114
  97,  225, 2239,  198,  163
  98,  116,  163,   11,   10
  99,  460,  542,  304,  266
 100, 2010, 2233, 2116, 2187
 101,   10,  117,  173,  116
 102,  216,  243,  192,  149
 103,    9,   16,  119,  157
 104,  133,   22,   21,  164
 105,  120,  149,   16,   15
 106,  183,  122,  150,  210
 107,  360,  295,  396,  453
 108,   15,  122,  144,  120
 109,  121,  145,    1,    8
 110,  124,  150,   14,   13
** ... 2469 like lines cut
*Nset, nset=_PickedSet2, internal, generate
    1,  2587,     1
*Elset, elset=_PickedSet2, internal, generate
    1,  2579,     1
** Section: tole
*Shell Section, elset=_PickedSet2, material=acier
19., 5
*End Part
**  
**
** ASSEMBLY
**
*Assembly, name=Assembly
**  
*Instance, name=plaque-1, part=plaque
*End Instance
**  
*Node
      1,         155.,         245.,           0.
*Node
      2,         155.,         155.,           0.
*Node
      3,         245.,         155.,           0.
*Node
      4,         245.,         245.,           0.
*Nset, nset=_PickedSet9, internal
 1,
*Nset, nset=_PickedSet11, internal
 2,
*Nset, nset=_PickedSet13, internal
 3,
*Nset, nset=_PickedSet15, internal
 4,
*Nset, nset=_PickedSet16, internal, generate
 1,  4,  1
*Elset, elset=__PickedSurf8_E2, internal, instance=plaque-1
 104, 212, 216, 217
*Elset, elset=__PickedSurf8_E3, internal, instance=plaque-1
 124, 125, 129, 210
*Surface, type=ELEMENT, name=_PickedSurf8, internal
__PickedSurf8_E2, E2
__PickedSurf8_E3, E3
*Elset, elset=__PickedSurf10_E3, internal, instance=plaque-1
  98, 105, 110
*Elset, elset=__PickedSurf10_E1, internal, instance=plaque-1
 103,
*Elset, elset=__PickedSurf10_E2, internal, instance=plaque-1
 111, 196, 201, 206
*Surface, type=ELEMENT, name=_PickedSurf10, internal
__PickedSurf10_E3, E3
__PickedSurf10_E1, E1
__PickedSurf10_E2, E2
*Elset, elset=__PickedSurf12_E3, internal, instance=plaque-1
  93, 109, 224
*Elset, elset=__PickedSurf12_E4, internal, instance=plaque-1
 138,
*Elset, elset=__PickedSurf12_E2, internal, instance=plaque-1
 192, 193, 204
*Elset, elset=__PickedSurf12_E1, internal, instance=plaque-1
 194,
*Surface, type=ELEMENT, name=_PickedSurf12, internal
__PickedSurf12_E3, E3
__PickedSurf12_E4, E4
__PickedSurf12_E2, E2
__PickedSurf12_E1, E1
*Elset, elset=__PickedSurf14_E1, internal, instance=plaque-1
 113,
*Elset, elset=__PickedSurf14_E3, internal, instance=plaque-1
 116, 119, 133, 136
*Elset, elset=__PickedSurf14_E2, internal, instance=plaque-1
 208, 209, 220
*Surface, type=ELEMENT, name=_PickedSurf14, internal
__PickedSurf14_E1, E1
__PickedSurf14_E3, E3
__PickedSurf14_E2, E2
** Constraint: Constraint-1
*Coupling, constraint name=Constraint-1, ref node=_PickedSet9, surface=_PickedSurf8
*Kinematic
** Constraint: Constraint-2
*Coupling, constraint name=Constraint-2, ref node=_PickedSet11, surface=_PickedSurf10
*Kinematic
** Constraint: Constraint-3
*Coupling, constraint name=Constraint-3, ref node=_PickedSet13, surface=_PickedSurf12
*Kinematic
** Constraint: Constraint-4
*Coupling, constraint name=Constraint-4, ref node=_PickedSet15, surface=_PickedSurf14
*Kinematic
*End Assembly
** 
** MATERIALS
** 
*Material, name=acier
*Density
 7.86e-09,
*Elastic
210000., 0.26
** ----------------------------------------------------------------
** 
** STEP: analyse_modale
** 
*Step, name=analyse_modale, nlgeom=NO, perturbation
*Frequency, eigensolver=Lanczos, sim, acoustic coupling=on, normalization=mass
, , 500., , , 
** 
** BOUNDARY CONDITIONS
** 
** Name: blocage Type: Symmetry/Antisymmetry/Encastre
*Boundary
_PickedSet16, ENCASTRE
** 
** OUTPUT REQUESTS
** 
*Restart, write, frequency=0
** 
** FIELD OUTPUT: F-Output-1
** 
*Output, field
*Node Output, variable=PRESELECT
** 
** HISTORY OUTPUT: H-Output-1
** 
*Output, history
*Energy Output, variable=ALL
*End Step
