*Heading
** Job name: vibration Model name: Model-1
** Generated by: Abaqus/CAE 2025
*Preprint, echo=NO, model=NO, history=NO, contact=NO
**
** PARTS
**
*Part, name=plaque
*Node
      1,    207.17157,    192.82843,           0.
      2,         206.,         190.,           0.
      3,    207.17157,    187.17157,           0.
      4,         210.,         186.,           0.
      5,    212.82843,    187.17157,           0.
      6,         214.,         190.,           0.
      7,    212.82843,    192.82843,           0.
      8,         210.,         194.,           0.
      9,    187.17157,    192.82843,           0.
     10,         186.,         190.,           0.
     11,    187.17157,    187.17157,           0.
     12,         190.,         186.,           0.
     13,    192.82843,    187.17157,           0.
     14,         194.,         190.,           0.
     15,    192.82843,    192.82843,           0.
     16,         190.,         194.,           0.
     17,    192.82843,    207.17157,           0.
     18,         194.,         210.,           0.
     19,    192.82843,    212.82843,           0.
     20,         190.,         214.,           0.
** ... 1286 like lines cut
*Element, type=S3
 1, 1121,  236,  146
 2,  232,  140,  155
 3, 1162,  338,  302
 4, 1140,  302,  272
 5,  195,  141,  163
 6,  220,  143,  164
 7, 1124,  191,  197
 8,  115,  227,  165
 9,  125,  230,  168
10,  242,  179,  225
11,  239,  177,  226
12,  262,  316,  216
13,  471,  395,  348
14, 1173,  379,  339
15,  340,  291,  319
16,  442,  424,  401
17, 1188, 1212,  406
18,  438,  461,  407
19, 1197,  413,  392
20,  455,  400,  419
** ... 32 like lines cut
*Element, type=S4R
  53,  133,  145,   25,   32
  54,  276,  257,  268, 1153
  55,  315,  283,  227,  261
  56,  115,  165,    5,    4
  57,  299,  325,  315,  261
  58,    4,  116,  173,  115
  59,  146,    3,  118, 1121
  60,  117,   13,   12,  169
  61,  157,    2,  119,  199
  62,  185,  119,  149,  223
  63,  221,  152,  191,  250
  64,  122,  158,   30,   29
  65,  195,  183,  180,  141
  66,   29,  123,  147,  122
  67,  124,  171,   28,   27
  68,  420,  459,  452,  408
  69, 1145,  324,  314,  260
  70,  324,  346,  332,  314
  71,  298,  307,  275,  270
  72,  125,  168,   21,   20
** ... 1207 like lines cut
*Nset, nset=_PickedSet2, internal, generate
    1,  1306,     1
*Elset, elset=_PickedSet2, internal, generate
    1,  1279,     1
** Section: tole
*Shell Section, elset=_PickedSet2, material=aluminium
6., 5
*End Part
**  
**
** ASSEMBLY
**
*Assembly, name=Assembly
**  
*Instance, name=plaque-1, part=plaque
*End Instance
**  
*Node
      1,         190.,         210.,           0.
*Node
      2,         190.,         190.,           0.
*Node
      3,         210.,         190.,           0.
*Node
      4,         210.,         210.,           0.
*Nset, nset=_PickedSet9, internal
 1,
*Nset, nset=_PickedSet11, internal
 2,
*Nset, nset=_PickedSet13, internal
 3,
*Nset, nset=_PickedSet15, internal
 4,
*Nset, nset=_PickedSet16, internal, generate
 1,  4,  1
*Elset, elset=__PickedSurf8_E3, internal, instance=plaque-1
  72, 195
*Elset, elset=__PickedSurf8_E4, internal, instance=plaque-1
 146,
*Elset, elset=__PickedSurf8_E2, internal, instance=plaque-1
 171, 177, 192, 194
*Elset, elset=__PickedSurf8_E1, internal, instance=plaque-1
 174,
*Surface, type=ELEMENT, name=_PickedSurf8, internal
__PickedSurf8_E3, E3
__PickedSurf8_E4, E4
__PickedSurf8_E2, E2
__PickedSurf8_E1, E1
*Elset, elset=__PickedSurf10_E2, internal, instance=plaque-1
  60,  77, 185
*Elset, elset=__PickedSurf10_E3, internal, instance=plaque-1
  76,  85,  86, 186
*Elset, elset=__PickedSurf10_E4, internal, instance=plaque-1
 141,
*Surface, type=ELEMENT, name=_PickedSurf10, internal
__PickedSurf10_E2, E2
__PickedSurf10_E3, E3
__PickedSurf10_E4, E4
*Elset, elset=__PickedSurf12_E3, internal, instance=plaque-1
  56, 163
*Elset, elset=__PickedSurf12_E2, internal, instance=plaque-1
  84, 154, 155, 162, 184
*Elset, elset=__PickedSurf12_E1, internal, instance=plaque-1
 181,
*Surface, type=ELEMENT, name=_PickedSurf12, internal
__PickedSurf12_E3, E3
__PickedSurf12_E2, E2
__PickedSurf12_E1, E1
*Elset, elset=__PickedSurf14_E3, internal, instance=plaque-1
  53,  64,  67, 182
*Elset, elset=__PickedSurf14_E2, internal, instance=plaque-1
  90, 152, 167
*Elset, elset=__PickedSurf14_E1, internal, instance=plaque-1
 169,
*Surface, type=ELEMENT, name=_PickedSurf14, internal
__PickedSurf14_E3, E3
__PickedSurf14_E2, E2
__PickedSurf14_E1, E1
** Constraint: Constraint-1
*Coupling, constraint name=Constraint-1, ref node=_PickedSet9, surface=_PickedSurf8
*Kinematic
** Constraint: Constraint-2
*Coupling, constraint name=Constraint-2, ref node=_PickedSet11, surface=_PickedSurf10
*Kinematic
** Constraint: Constraint-3
*Coupling, constraint name=Constraint-3, ref node=_PickedSet13, surface=_PickedSurf12
*Kinematic
** Constraint: Constraint-4
*Coupling, constraint name=Constraint-4, ref node=_PickedSet15, surface=_PickedSurf14
*Kinematic
*End Assembly
** 
** MATERIALS
** 
*Material, name=aluminium
*Density
 2.7e-09,
*Elastic
69000., 0.33
** ----------------------------------------------------------------
** 
** STEP: analyse_modale
** 
*Step, name=analyse_modale, nlgeom=NO, perturbation
*Frequency, eigensolver=Lanczos, sim, acoustic coupling=on, normalization=mass
, , 500., , , 
** 
** BOUNDARY CONDITIONS
** 
** Name: blocage Type: Symmetry/Antisymmetry/Encastre
*Boundary
_PickedSet16, ENCASTRE
** 
** OUTPUT REQUESTS
** 
*Restart, write, frequency=0
** 
** FIELD OUTPUT: F-Output-1
** 
*Output, field
*Node Output, variable=PRESELECT
** 
** HISTORY OUTPUT: H-Output-1
** 
*Output, history
*Energy Output, variable=ALL
*End Step
