*Heading
** Job name: vibration Model name: Model-1
** Generated by: Abaqus/CAE 2025
*Preprint, echo=NO, model=NO, history=NO, contact=NO
**
** PARTS
**
*Part, name=plaque
*Node
      1,    372.17157,   27.8284264,           0.
      2,         371.,          25.,           0.
      3,    372.17157,   22.1715736,           0.
      4,         375.,          21.,           0.
      5,    377.82843,   22.1715736,           0.
      6,         379.,          25.,           0.
      7,    377.82843,   27.8284264,           0.
      8,         375.,          29.,           0.
      9,   22.1715736,   27.8284264,           0.
     10,          21.,          25.,           0.
     11,   22.1715736,   22.1715736,           0.
     12,          25.,          21.,           0.
     13,   27.8284264,   22.1715736,           0.
     14,          29.,          25.,           0.
     15,   27.8284264,   27.8284264,           0.
     16,          25.,          29.,           0.
     17,   27.8284264,    372.17157,           0.
     18,          29.,         375.,           0.
     19,   27.8284264,    377.82843,           0.
     20,          25.,         379.,           0.
** ... 720 like lines cut
*Element, type=S3
 1, 130,  22, 674
 2, 132, 155, 176
 3, 172, 694, 188
 4, 160, 123, 141
 5,   7, 129,   8
 6,   3, 132,   4
 7, 115, 135,  12
 8, 119, 152,  14
 9, 154,  25,  32
10, 184, 676, 122
11, 688, 185, 145
12, 212, 209, 196
13, 117, 159, 136
14,  28, 676, 131
15, 180, 158, 173
16, 182,  34,  55
17, 185,  36, 112
18, 188,  54,  53
19, 255, 252, 222
20, 236, 228, 221
** ... 22 like lines cut
*Element, type=S4R
 43, 144, 691,   6,   5
 44, 132, 165, 125,   4
 45, 132,   3,   2, 155
 46, 116, 136, 159, 680
 47, 117, 136,  10,   9
 48,  16, 139, 672,   9
 49, 163, 164, 139, 673
 50, 208, 217, 242, 227
 51, 692, 189, 190, 207
 52, 119,  14,  13, 137
 53, 135, 137,  13,  12
 54, 135, 115, 182, 682
 55, 155,   2,   1, 126
 56, 224, 215, 240, 254
 57, 703, 698, 246, 263
 58,  28, 131, 143,  29
 59, 127, 147,  19,  18
 60, 161,  75, 688, 689
 61, 689, 114, 134, 161
 62, 114, 145, 128,  21
** ... 646 like lines cut
*Nset, nset=_PickedSet2, internal, generate
   1,  740,    1
*Elset, elset=_PickedSet2, internal, generate
   1,  708,    1
** Section: tole
*Shell Section, elset=_PickedSet2, material=titan
4., 5
*End Part
**  
**
** ASSEMBLY
**
*Assembly, name=Assembly
**  
*Instance, name=plaque-1, part=plaque
*End Instance
**  
*Node
      1,          25.,         375.,           0.
*Node
      2,          25.,          25.,           0.
*Node
      3,         375.,          25.,           0.
*Node
      4,         375.,         375.,           0.
*Nset, nset=_PickedSet9, internal
 1,
*Nset, nset=_PickedSet11, internal
 2,
*Nset, nset=_PickedSet13, internal
 3,
*Nset, nset=_PickedSet15, internal
 4,
*Nset, nset=_PickedSet16, internal, generate
 1,  4,  1
*Elset, elset=__PickedSurf8_E3, internal, instance=plaque-1
  59,  64, 123, 142
*Elset, elset=__PickedSurf8_E4, internal, instance=plaque-1
 95,
*Elset, elset=__PickedSurf8_E2, internal, instance=plaque-1
 125, 141
*Elset, elset=__PickedSurf8_E1, internal, instance=plaque-1
 127,
*Surface, type=ELEMENT, name=_PickedSurf8, internal
__PickedSurf8_E3, E3
__PickedSurf8_E4, E4
__PickedSurf8_E2, E2
__PickedSurf8_E1, E1
*Elset, elset=__PickedSurf10_E3, internal, instance=plaque-1
 47, 53
*Elset, elset=__PickedSurf10_E4, internal, instance=plaque-1
 48,
*Elset, elset=__PickedSurf10_E2, internal, instance=plaque-1
  52, 129, 130, 131
*Elset, elset=__PickedSurf10_E1, internal, instance=plaque-1
 128,
*Surface, type=ELEMENT, name=_PickedSurf10, internal
__PickedSurf10_E3, E3
__PickedSurf10_E4, E4
__PickedSurf10_E2, E2
__PickedSurf10_E1, E1
*Elset, elset=__PickedSurf12_E3, internal, instance=plaque-1
   5,   6,  43, 124
*Elset, elset=__PickedSurf12_E2, internal, instance=plaque-1
 45, 55
*Elset, elset=__PickedSurf12_E1, internal, instance=plaque-1
 68,
*Elset, elset=__PickedSurf12_E4, internal, instance=plaque-1
 93,
*Surface, type=ELEMENT, name=_PickedSurf12, internal
__PickedSurf12_E3, E3
__PickedSurf12_E2, E2
__PickedSurf12_E4, E4
__PickedSurf12_E1, E1
*Elset, elset=__PickedSurf14_E2, internal, instance=plaque-1
   9, 133, 134, 135, 138
*Elset, elset=__PickedSurf14_E4, internal, instance=plaque-1
 58,
*Elset, elset=__PickedSurf14_E1, internal, instance=plaque-1
 66,
*Elset, elset=__PickedSurf14_E3, internal, instance=plaque-1
 67,
*Surface, type=ELEMENT, name=_PickedSurf14, internal
__PickedSurf14_E2, E2
__PickedSurf14_E4, E4
__PickedSurf14_E1, E1
__PickedSurf14_E3, E3
** Constraint: Constraint-1
*Coupling, constraint name=Constraint-1, ref node=_PickedSet9, surface=_PickedSurf8
*Kinematic
** Constraint: Constraint-2
*Coupling, constraint name=Constraint-2, ref node=_PickedSet11, surface=_PickedSurf10
*Kinematic
** Constraint: Constraint-3
*Coupling, constraint name=Constraint-3, ref node=_PickedSet13, surface=_PickedSurf12
*Kinematic
** Constraint: Constraint-4
*Coupling, constraint name=Constraint-4, ref node=_PickedSet15, surface=_PickedSurf14
*Kinematic
*End Assembly
** 
** MATERIALS
** 
*Material, name=titan
*Density
 4.5e-09,
*Elastic
114000., 0.34
** ----------------------------------------------------------------
** 
** STEP: analyse_modale
** 
*Step, name=analyse_modale, nlgeom=NO, perturbation
*Frequency, eigensolver=Lanczos, sim, acoustic coupling=on, normalization=mass
, , 500., , , 
** 
** BOUNDARY CONDITIONS
** 
** Name: blocage Type: Symmetry/Antisymmetry/Encastre
*Boundary
_PickedSet16, ENCASTRE
** 
** OUTPUT REQUESTS
** 
*Restart, write, frequency=0
** 
** FIELD OUTPUT: F-Output-1
** 
*Output, field
*Node Output, variable=PRESELECT
** 
** HISTORY OUTPUT: H-Output-1
** 
*Output, history
*Energy Output, variable=ALL
*End Step
