*Heading
** Job name: vibration Model name: Model-1
** Generated by: Abaqus/CAE 2025
*Preprint, echo=NO, model=NO, history=NO, contact=NO
**
** PARTS
**
*Part, name=plaque
*Node
      1,    362.17157,   37.8284264,           0.
      2,         361.,          35.,           0.
      3,    362.17157,   32.1715736,           0.
      4,         365.,          31.,           0.
      5,    367.82843,   32.1715736,           0.
      6,         369.,          35.,           0.
      7,    367.82843,   37.8284264,           0.
      8,         365.,          39.,           0.
      9,   32.1715736,   37.8284264,           0.
     10,          31.,          35.,           0.
     11,   32.1715736,   32.1715736,           0.
     12,          35.,          31.,           0.
     13,   37.8284264,   32.1715736,           0.
     14,          39.,          35.,           0.
     15,   37.8284264,   37.8284264,           0.
     16,          35.,          39.,           0.
     17,   37.8284264,    362.17157,           0.
     18,          39.,         365.,           0.
     19,   37.8284264,    367.82843,           0.
     20,          35.,         369.,           0.
** ... 783 like lines cut
*Element, type=S3
 1,  20, 118,  21
 2, 706, 183, 156
 3,  21, 118, 164
 4, 268, 715, 200
 5, 213, 175, 193
 6, 734, 171, 204
 7, 722, 136, 164
 8, 169, 119, 139
 9, 218, 166, 196
10, 207, 303,  39
11, 209, 182, 713
12, 136, 204, 162
13, 124, 196, 166
14, 209, 713, 183
15, 224, 190, 712
16, 258,  38, 210
17, 424, 739, 316
18, 755, 747, 424
19, 609, 574, 580
20, 641, 620, 619
** ... 16 like lines cut
*Element, type=S4R
 37, 163, 184, 714, 179
 38, 133,   5,   4, 147
 39, 189,   3, 114, 721
 40, 114,   3,   2, 696
 41, 153,  11,  10, 121
 42, 153, 716, 185, 120
 43, 697, 122, 729, 152
 44, 122,  16, 123, 148
 45, 148, 725, 197, 172
 46, 171, 115, 162, 204
 47, 742, 370, 233, 218
 48, 738, 238, 214, 257
 49, 150,  15,  14, 124
 50, 134, 154,   1,   8
 51,  12, 120, 149,  13
 52, 161, 113, 143, 723
 53, 116, 696,   2,   1
 54, 332, 374, 249, 259
 55, 726, 125, 705, 155
 56,  29,  28, 126, 705
** ... 712 like lines cut
*Nset, nset=_PickedSet2, internal, generate
   1,  803,    1
*Elset, elset=_PickedSet2, internal, generate
   1,  768,    1
** Section: tole
*Shell Section, elset=_PickedSet2, material=aluminium
10., 5
*End Part
**  
**
** ASSEMBLY
**
*Assembly, name=Assembly
**  
*Instance, name=plaque-1, part=plaque
*End Instance
**  
*Node
      1,          35.,         365.,           0.
*Node
      2,          35.,          35.,           0.
*Node
      3,         365.,          35.,           0.
*Node
      4,         365.,         365.,           0.
*Nset, nset=_PickedSet9, internal
 1,
*Nset, nset=_PickedSet11, internal
 2,
*Nset, nset=_PickedSet13, internal
 3,
*Nset, nset=_PickedSet15, internal
 4,
*Nset, nset=_PickedSet16, internal, generate
 1,  4,  1
*Elset, elset=__PickedSurf8_E3, internal, instance=plaque-1
   1, 155
*Elset, elset=__PickedSurf8_E4, internal, instance=plaque-1
  60, 126
*Elset, elset=__PickedSurf8_E2, internal, instance=plaque-1
 127, 129, 130
*Elset, elset=__PickedSurf8_E1, internal, instance=plaque-1
 132,
*Surface, type=ELEMENT, name=_PickedSurf8, internal
__PickedSurf8_E3, E3
__PickedSurf8_E4, E4
__PickedSurf8_E2, E2
__PickedSurf8_E1, E1
*Elset, elset=__PickedSurf10_E2, internal, instance=plaque-1
  41,  49, 133, 134, 138
*Elset, elset=__PickedSurf10_E4, internal, instance=plaque-1
  51, 119, 135
*Surface, type=ELEMENT, name=_PickedSurf10, internal
__PickedSurf10_E2, E2
__PickedSurf10_E4, E4
*Elset, elset=__PickedSurf12_E2, internal, instance=plaque-1
  38,  40,  71, 152
*Elset, elset=__PickedSurf12_E3, internal, instance=plaque-1
  50,  53,  74, 102
*Surface, type=ELEMENT, name=_PickedSurf12, internal
__PickedSurf12_E2, E2
__PickedSurf12_E3, E3
*Elset, elset=__PickedSurf14_E1, internal, instance=plaque-1
  56, 145
*Elset, elset=__PickedSurf14_E2, internal, instance=plaque-1
  67,  69, 141, 142
*Elset, elset=__PickedSurf14_E3, internal, instance=plaque-1
 68, 70
*Surface, type=ELEMENT, name=_PickedSurf14, internal
__PickedSurf14_E1, E1
__PickedSurf14_E2, E2
__PickedSurf14_E3, E3
** Constraint: Constraint-1
*Coupling, constraint name=Constraint-1, ref node=_PickedSet9, surface=_PickedSurf8
*Kinematic
** Constraint: Constraint-2
*Coupling, constraint name=Constraint-2, ref node=_PickedSet11, surface=_PickedSurf10
*Kinematic
** Constraint: Constraint-3
*Coupling, constraint name=Constraint-3, ref node=_PickedSet13, surface=_PickedSurf12
*Kinematic
** Constraint: Constraint-4
*Coupling, constraint name=Constraint-4, ref node=_PickedSet15, surface=_PickedSurf14
*Kinematic
*End Assembly
** 
** MATERIALS
** 
*Material, name=aluminium
*Density
 2.7e-09,
*Elastic
69000., 0.33
** ----------------------------------------------------------------
** 
** STEP: analyse_modale
** 
*Step, name=analyse_modale, nlgeom=NO, perturbation
*Frequency, eigensolver=Lanczos, sim, acoustic coupling=on, normalization=mass
, , 500., , , 
** 
** BOUNDARY CONDITIONS
** 
** Name: blocage Type: Symmetry/Antisymmetry/Encastre
*Boundary
_PickedSet16, ENCASTRE
** 
** OUTPUT REQUESTS
** 
*Restart, write, frequency=0
** 
** FIELD OUTPUT: F-Output-1
** 
*Output, field
*Node Output, variable=PRESELECT
** 
** HISTORY OUTPUT: H-Output-1
** 
*Output, history
*Energy Output, variable=ALL
*End Step
