*Heading
** Job name: vibration Model name: Model-1
** Generated by: Abaqus/CAE 2025
*Preprint, echo=NO, model=NO, history=NO, contact=NO
**
** PARTS
**
*Part, name=plaque
*Node
      1,    352.17157,   47.8284264,           0.
      2,         351.,          45.,           0.
      3,    352.17157,   42.1715736,           0.
      4,         355.,          41.,           0.
      5,    357.82843,   42.1715736,           0.
      6,         359.,          45.,           0.
      7,    357.82843,   47.8284264,           0.
      8,         355.,          49.,           0.
      9,   42.1715736,   47.8284264,           0.
     10,          41.,          45.,           0.
     11,   42.1715736,   42.1715736,           0.
     12,          45.,          41.,           0.
     13,   47.8284264,   42.1715736,           0.
     14,          49.,          45.,           0.
     15,   47.8284264,   47.8284264,           0.
     16,          45.,          49.,           0.
     17,   47.8284264,    352.17157,           0.
     18,          49.,         355.,           0.
     19,   47.8284264,    357.82843,           0.
     20,          45.,         359.,           0.
** ... 1182 like lines cut
*Element, type=S3
 1,  132,  131,   25
 2, 1078,  162, 1048
 3,  193,  141,  165
 4, 1055,  244,  169
 5,  234,  221,  203
 6,  171,  164,  120
 7, 1037,  139,  149
 8,  184,  164,  171
 9,  127,  186,  161
10,  159, 1050,  118
11,  216,  273,  182
12, 1049, 1075,  142
13, 1028, 1057,  137
14,  124, 1061,  152
15,  172, 1073,  205
16,  199,  197,  177
17,  231,  201,  221
18,  241,   54,   53
19,  261, 1070, 1050
20,  977, 1075, 1042
** ... 44 like lines cut
*Element, type=S4R
  65,  116,  145,  193,  165
  66,  113,  156,  199,  177
  67,  156,    5,    4,  134
  68, 1029,    3,  114,  175
  69,    2, 1030,  114,    3
  70,  151,  182,  155,  126
  71,  153,   11,  121, 1034
  72,  153,  181,  151,  126
  73,  154, 1031,  122,  173
  74, 1036,   23,  136, 1046
  75,   23,   22, 1037,  136
  76,  122,   16,  123,  150
  77,  238,  310,  211, 1072
  78, 1089,  318,  300,  283
  79, 1055,  252,  276,  244
  80,  124,  152,   15,   14
  81,  137,  158,    1,    8
  82,  124,   14,  125, 1033
  83,  153,  126,   12,   11
  84,    6,  113,  177,  116
** ... 1097 like lines cut
*Nset, nset=_PickedSet2, internal, generate
    1,  1202,     1
*Elset, elset=_PickedSet2, internal, generate
    1,  1181,     1
** Section: tole
*Shell Section, elset=_PickedSet2, material=titan
17., 5
*End Part
**  
**
** ASSEMBLY
**
*Assembly, name=Assembly
**  
*Instance, name=plaque-1, part=plaque
*End Instance
**  
*Node
      1,          45.,         355.,           0.
*Node
      2,          45.,          45.,           0.
*Node
      3,         355.,          45.,           0.
*Node
      4,         355.,         355.,           0.
*Nset, nset=_PickedSet9, internal
 1,
*Nset, nset=_PickedSet11, internal
 2,
*Nset, nset=_PickedSet13, internal
 3,
*Nset, nset=_PickedSet15, internal
 4,
*Nset, nset=_PickedSet16, internal, generate
 1,  4,  1
*Elset, elset=__PickedSurf8_E1, internal, instance=plaque-1
 75,
*Elset, elset=__PickedSurf8_E3, internal, instance=plaque-1
 90, 94, 95
*Elset, elset=__PickedSurf8_E4, internal, instance=plaque-1
 137,
*Elset, elset=__PickedSurf8_E2, internal, instance=plaque-1
 159, 161, 179
*Surface, type=ELEMENT, name=_PickedSurf8, internal
__PickedSurf8_E1, E1
__PickedSurf8_E3, E3
__PickedSurf8_E4, E4
__PickedSurf8_E2, E2
*Elset, elset=__PickedSurf10_E3, internal, instance=plaque-1
  80,  83, 119
*Elset, elset=__PickedSurf10_E4, internal, instance=plaque-1
 118, 149, 164
*Elset, elset=__PickedSurf10_E2, internal, instance=plaque-1
 163,
*Elset, elset=__PickedSurf10_E1, internal, instance=plaque-1
 166,
*Surface, type=ELEMENT, name=_PickedSurf10, internal
__PickedSurf10_E3, E3
__PickedSurf10_E4, E4
__PickedSurf10_E2, E2
__PickedSurf10_E1, E1
*Elset, elset=__PickedSurf12_E2, internal, instance=plaque-1
  67, 176
*Elset, elset=__PickedSurf12_E4, internal, instance=plaque-1
  69, 109, 160
*Elset, elset=__PickedSurf12_E3, internal, instance=plaque-1
  81, 104, 157
*Surface, type=ELEMENT, name=_PickedSurf12, internal
__PickedSurf12_E2, E2
__PickedSurf12_E4, E4
__PickedSurf12_E3, E3
*Elset, elset=__PickedSurf14_E2, internal, instance=plaque-1
  87,  89, 171, 173
*Elset, elset=__PickedSurf14_E3, internal, instance=plaque-1
  99, 103
*Elset, elset=__PickedSurf14_E4, internal, instance=plaque-1
 126,
*Elset, elset=__PickedSurf14_E1, internal, instance=plaque-1
 172,
*Surface, type=ELEMENT, name=_PickedSurf14, internal
__PickedSurf14_E2, E2
__PickedSurf14_E3, E3
__PickedSurf14_E4, E4
__PickedSurf14_E1, E1
** Constraint: Constraint-1
*Coupling, constraint name=Constraint-1, ref node=_PickedSet9, surface=_PickedSurf8
*Kinematic
** Constraint: Constraint-2
*Coupling, constraint name=Constraint-2, ref node=_PickedSet11, surface=_PickedSurf10
*Kinematic
** Constraint: Constraint-3
*Coupling, constraint name=Constraint-3, ref node=_PickedSet13, surface=_PickedSurf12
*Kinematic
** Constraint: Constraint-4
*Coupling, constraint name=Constraint-4, ref node=_PickedSet15, surface=_PickedSurf14
*Kinematic
*End Assembly
** 
** MATERIALS
** 
*Material, name=titan
*Density
 4.5e-09,
*Elastic
114000., 0.34
** ----------------------------------------------------------------
** 
** STEP: analyse_modale
** 
*Step, name=analyse_modale, nlgeom=NO, perturbation
*Frequency, eigensolver=Lanczos, sim, acoustic coupling=on, normalization=mass
, , 500., , , 
** 
** BOUNDARY CONDITIONS
** 
** Name: blocage Type: Symmetry/Antisymmetry/Encastre
*Boundary
_PickedSet16, ENCASTRE
** 
** OUTPUT REQUESTS
** 
*Restart, write, frequency=0
** 
** FIELD OUTPUT: F-Output-1
** 
*Output, field
*Node Output, variable=PRESELECT
** 
** HISTORY OUTPUT: H-Output-1
** 
*Output, history
*Energy Output, variable=ALL
*End Step
