*Heading
** Job name: vibration Model name: Model-1
** Generated by: Abaqus/CAE 2025
*Preprint, echo=NO, model=NO, history=NO, contact=NO
**
** PARTS
**
*Part, name=plaque
*Node
      1,    392.17157,   7.82842731,           0.
      2,         391.,           5.,           0.
      3,    392.17157,   2.17157292,           0.
      4,         395.,           1.,           0.
      5,    397.82843,   2.17157292,           0.
      6,         399.,           5.,           0.
      7,    397.82843,   7.82842731,           0.
      8,         395.,           9.,           0.
      9,   2.17157292,   7.82842731,           0.
     10,           1.,           5.,           0.
     11,   2.17157292,   2.17157292,           0.
     12,           5.,           1.,           0.
     13,   7.82842731,   2.17157292,           0.
     14,           9.,           5.,           0.
     15,   7.82842731,   7.82842731,           0.
     16,           5.,           9.,           0.
     17,   7.82842731,    392.17157,           0.
     18,           9.,         395.,           0.
     19,   7.82842731,    397.82843,           0.
     20,           5.,         399.,           0.
** ... 577 like lines cut
*Element, type=S3
 1, 547,  74, 546
 2,  33,   4, 548
 3, 553, 552,  55
 4, 114, 567, 122
 5,  36,  20, 559
 6, 566,  30,  29
 7, 564, 563,  35
 8, 548,   4,   3
 9,  56, 563, 562
10, 551, 549,  94
11, 112, 555, 556
12, 552,  13,  12
13, 567, 114,  30
14, 124, 116, 121
15, 198, 130, 111
16, 137,  38, 129
17, 257, 137, 135
18, 315, 203, 255
19, 533, 516, 515
20, 474, 432, 438
** ... 46 like lines cut
*Element, type=S4R
 67, 120, 584, 572,   2
 68, 113, 550,  16,  15
 69,  16, 550, 549,   9
 70, 255, 182, 181, 202
 71, 554,  14,  13, 553
 72, 545,   8,   7, 546
 73,  15,  14, 554, 117
 74, 548,   3,   2, 572
 75, 562,  25,  32, 561
 76,   1, 115, 120,   2
 77, 160, 159, 204, 206
 78, 558, 132, 139,  76
 79, 557, 556,  23,  22
 80, 560,  19,  18, 124
 81, 116, 124,  18,  17
 82,  23, 556, 555,  24
 83, 139, 132, 136, 258
 84, 575,  28,  27, 564
 85,  56, 562, 561, 568
 86, 561,  32,  31, 118
** ... 491 like lines cut
*Nset, nset=_PickedSet2, internal, generate
   1,  597,    1
*Elset, elset=_PickedSet2, internal, generate
   1,  577,    1
** Section: tole
*Shell Section, elset=_PickedSet2, material=cuivre
11., 5
*End Part
**  
**
** ASSEMBLY
**
*Assembly, name=Assembly
**  
*Instance, name=plaque-1, part=plaque
*End Instance
**  
*Node
      1,           5.,         395.,           0.
*Node
      2,           5.,           5.,           0.
*Node
      3,         395.,           5.,           0.
*Node
      4,         395.,         395.,           0.
*Nset, nset=_PickedSet9, internal
 1,
*Nset, nset=_PickedSet11, internal
 2,
*Nset, nset=_PickedSet13, internal
 3,
*Nset, nset=_PickedSet15, internal
 4,
*Nset, nset=_PickedSet16, internal, generate
 1,  4,  1
*Elset, elset=__PickedSurf8_E3, internal, instance=plaque-1
 42, 79, 81
*Elset, elset=__PickedSurf8_E1, internal, instance=plaque-1
  43, 151
*Elset, elset=__PickedSurf8_E2, internal, instance=plaque-1
  80, 566
*Elset, elset=__PickedSurf8_E4, internal, instance=plaque-1
 82,
*Surface, type=ELEMENT, name=_PickedSurf8, internal
__PickedSurf8_E3, E3
__PickedSurf8_E1, E1
__PickedSurf8_E2, E2
__PickedSurf8_E4, E4
*Elset, elset=__PickedSurf10_E2, internal, instance=plaque-1
 12, 35, 36, 71
*Elset, elset=__PickedSurf10_E3, internal, instance=plaque-1
 33, 68
*Elset, elset=__PickedSurf10_E4, internal, instance=plaque-1
 69,
*Elset, elset=__PickedSurf10_E1, internal, instance=plaque-1
 73,
*Surface, type=ELEMENT, name=_PickedSurf10, internal
__PickedSurf10_E2, E2
__PickedSurf10_E3, E3
__PickedSurf10_E4, E4
__PickedSurf10_E1, E1
*Elset, elset=__PickedSurf12_E2, internal, instance=plaque-1
   8,  72,  74, 563
*Elset, elset=__PickedSurf12_E1, internal, instance=plaque-1
  26, 562, 570
*Elset, elset=__PickedSurf12_E4, internal, instance=plaque-1
 76,
*Surface, type=ELEMENT, name=_PickedSurf12, internal
__PickedSurf12_E2, E2
__PickedSurf12_E1, E1
__PickedSurf12_E4, E4
*Elset, elset=__PickedSurf14_E2, internal, instance=plaque-1
  6, 49, 51, 75, 84, 86
*Elset, elset=__PickedSurf14_E1, internal, instance=plaque-1
 153,
*Elset, elset=__PickedSurf14_E4, internal, instance=plaque-1
 567,
*Surface, type=ELEMENT, name=_PickedSurf14, internal
__PickedSurf14_E2, E2
__PickedSurf14_E1, E1
__PickedSurf14_E4, E4
** Constraint: Constraint-1
*Coupling, constraint name=Constraint-1, ref node=_PickedSet9, surface=_PickedSurf8
*Kinematic
** Constraint: Constraint-2
*Coupling, constraint name=Constraint-2, ref node=_PickedSet11, surface=_PickedSurf10
*Kinematic
** Constraint: Constraint-3
*Coupling, constraint name=Constraint-3, ref node=_PickedSet13, surface=_PickedSurf12
*Kinematic
** Constraint: Constraint-4
*Coupling, constraint name=Constraint-4, ref node=_PickedSet15, surface=_PickedSurf14
*Kinematic
*End Assembly
** 
** MATERIALS
** 
*Material, name=cuivre
*Density
 8.96e-09,
*Elastic
124000., 0.36
** ----------------------------------------------------------------
** 
** STEP: analyse_modale
** 
*Step, name=analyse_modale, nlgeom=NO, perturbation
*Frequency, eigensolver=Lanczos, sim, acoustic coupling=on, normalization=mass
, , 500., , , 
** 
** BOUNDARY CONDITIONS
** 
** Name: blocage Type: Symmetry/Antisymmetry/Encastre
*Boundary
_PickedSet16, ENCASTRE
** 
** OUTPUT REQUESTS
** 
*Restart, write, frequency=0
** 
** FIELD OUTPUT: F-Output-1
** 
*Output, field
*Node Output, variable=PRESELECT
** 
** HISTORY OUTPUT: H-Output-1
** 
*Output, history
*Energy Output, variable=ALL
*End Step
