*Heading
** Job name: vibration Model name: Model-1
** Generated by: Abaqus/CAE 2025
*Preprint, echo=NO, model=NO, history=NO, contact=NO
**
** PARTS
**
*Part, name=plaque
*Node
      1,    322.17157,   77.8284302,           0.
      2,         321.,          75.,           0.
      3,    322.17157,   72.1715698,           0.
      4,         325.,          71.,           0.
      5,    327.82843,   72.1715698,           0.
      6,         329.,          75.,           0.
      7,    327.82843,   77.8284302,           0.
      8,         325.,          79.,           0.
      9,   72.1715698,   77.8284302,           0.
     10,          71.,          75.,           0.
     11,   72.1715698,   72.1715698,           0.
     12,          75.,          71.,           0.
     13,   77.8284302,   72.1715698,           0.
     14,          79.,          75.,           0.
     15,   77.8284302,   77.8284302,           0.
     16,          75.,          79.,           0.
     17,   77.8284302,    322.17157,           0.
     18,          79.,         325.,           0.
     19,   77.8284302,    327.82843,           0.
     20,          75.,         329.,           0.
** ... 2266 like lines cut
*Element, type=S3
 1,  151,   16,  124
 2,  128,  184,  123
 3,   10,  123,  153
 4,  264, 1985,  304
 5,  116,  211,  148
 6,  269,  335,  225
 7,  257,  198,  224
 8, 2087, 2038,  383
 9, 2041,  391,  368
10,  365,  339,  291
11,  402,  372,  401
12,  227,  360,  319
13, 2055,  431, 2023
14,  594,  393,  643
15,  507,  340,  402
16,  406,  334,  363
17, 2080,  456,  432
18,  468,  421,  328
19,  457,  349,  400
20,  562,  449,  505
** ... 60 like lines cut
*Element, type=S4R
  81,  180,  215,  244,  221
  82,  113,    5,  135,  157
  83,    3,  119,  163,  136
  84,    2,  143,  119,    3
  85,  254, 1989,  229,  296
  86,  121,   11,  122,  160
  87,  463, 1914,  653,  609
  88,   10,    9,  128,  123
  89,   16,  151,  128,    9
  90,  161,  197,  169,  138
  91,  142,   23,   22,  169
  92,  124,   16,   15,  156
  93,  175, 1965,  156,  125
  94,  475,  525,  471,  427
  95,  137,  155,    1,    8
  96,  156,   15,   14,  125
  97,  371,  336,  432,  456
  98,  126,  152,   14,   13
  99,  126,   13,  127,  162
 100,  120,    6,  144,  192
** ... 2173 like lines cut
*Nset, nset=_PickedSet2, internal, generate
    1,  2286,     1
*Elset, elset=_PickedSet2, internal, generate
    1,  2273,     1
** Section: tole
*Shell Section, elset=_PickedSet2, material=titan
17., 5
*End Part
**  
**
** ASSEMBLY
**
*Assembly, name=Assembly
**  
*Instance, name=plaque-1, part=plaque
*End Instance
**  
*Node
      1,          75.,         325.,           0.
*Node
      2,          75.,          75.,           0.
*Node
      3,         325.,          75.,           0.
*Node
      4,         325.,         325.,           0.
*Nset, nset=_PickedSet9, internal
 1,
*Nset, nset=_PickedSet11, internal
 2,
*Nset, nset=_PickedSet13, internal
 3,
*Nset, nset=_PickedSet15, internal
 4,
*Nset, nset=_PickedSet16, internal, generate
 1,  4,  1
*Elset, elset=__PickedSurf8_E2, internal, instance=plaque-1
  91, 182, 208
*Elset, elset=__PickedSurf8_E3, internal, instance=plaque-1
 108, 113, 177
*Elset, elset=__PickedSurf8_E4, internal, instance=plaque-1
 154, 174
*Surface, type=ELEMENT, name=_PickedSurf8, internal
__PickedSurf8_E2, E2
__PickedSurf8_E3, E3
__PickedSurf8_E4, E4
*Elset, elset=__PickedSurf10_E1, internal, instance=plaque-1
 88,
*Elset, elset=__PickedSurf10_E4, internal, instance=plaque-1
  89, 134
*Elset, elset=__PickedSurf10_E2, internal, instance=plaque-1
  92,  96, 187
*Elset, elset=__PickedSurf10_E3, internal, instance=plaque-1
  98, 186
*Surface, type=ELEMENT, name=_PickedSurf10, internal
__PickedSurf10_E1, E1
__PickedSurf10_E4, E4
__PickedSurf10_E2, E2
__PickedSurf10_E3, E3
*Elset, elset=__PickedSurf12_E4, internal, instance=plaque-1
  84, 101, 126
*Elset, elset=__PickedSurf12_E3, internal, instance=plaque-1
  95, 120, 125, 149
*Elset, elset=__PickedSurf12_E2, internal, instance=plaque-1
 205,
*Surface, type=ELEMENT, name=_PickedSurf12, internal
__PickedSurf12_E4, E4
__PickedSurf12_E3, E3
__PickedSurf12_E2, E2
*Elset, elset=__PickedSurf14_E2, internal, instance=plaque-1
 103, 195
*Elset, elset=__PickedSurf14_E4, internal, instance=plaque-1
 105, 119, 146, 196
*Elset, elset=__PickedSurf14_E3, internal, instance=plaque-1
 162,
*Elset, elset=__PickedSurf14_E1, internal, instance=plaque-1
 202,
*Surface, type=ELEMENT, name=_PickedSurf14, internal
__PickedSurf14_E2, E2
__PickedSurf14_E4, E4
__PickedSurf14_E3, E3
__PickedSurf14_E1, E1
** Constraint: Constraint-1
*Coupling, constraint name=Constraint-1, ref node=_PickedSet9, surface=_PickedSurf8
*Kinematic
** Constraint: Constraint-2
*Coupling, constraint name=Constraint-2, ref node=_PickedSet11, surface=_PickedSurf10
*Kinematic
** Constraint: Constraint-3
*Coupling, constraint name=Constraint-3, ref node=_PickedSet13, surface=_PickedSurf12
*Kinematic
** Constraint: Constraint-4
*Coupling, constraint name=Constraint-4, ref node=_PickedSet15, surface=_PickedSurf14
*Kinematic
*End Assembly
** 
** MATERIALS
** 
*Material, name=titan
*Density
 4.5e-09,
*Elastic
114000., 0.34
** ----------------------------------------------------------------
** 
** STEP: analyse_modale
** 
*Step, name=analyse_modale, nlgeom=NO, perturbation
*Frequency, eigensolver=Lanczos, sim, acoustic coupling=on, normalization=mass
, , 500., , , 
** 
** BOUNDARY CONDITIONS
** 
** Name: blocage Type: Symmetry/Antisymmetry/Encastre
*Boundary
_PickedSet16, ENCASTRE
** 
** OUTPUT REQUESTS
** 
*Restart, write, frequency=0
** 
** FIELD OUTPUT: F-Output-1
** 
*Output, field
*Node Output, variable=PRESELECT
** 
** HISTORY OUTPUT: H-Output-1
** 
*Output, history
*Energy Output, variable=ALL
*End Step
