*Heading
** Job name: vibration Model name: Model-1
** Generated by: Abaqus/CAE 2025
*Preprint, echo=NO, model=NO, history=NO, contact=NO
**
** PARTS
**
*Part, name=plaque
*Node
      1,    312.17157,   87.8284302,           0.
      2,         311.,          85.,           0.
      3,    312.17157,   82.1715698,           0.
      4,         315.,          81.,           0.
      5,    317.82843,   82.1715698,           0.
      6,         319.,          85.,           0.
      7,    317.82843,   87.8284302,           0.
      8,         315.,          89.,           0.
      9,   82.1715698,   87.8284302,           0.
     10,          81.,          85.,           0.
     11,   82.1715698,   82.1715698,           0.
     12,          85.,          81.,           0.
     13,   87.8284302,   82.1715698,           0.
     14,          89.,          85.,           0.
     15,   87.8284302,   87.8284302,           0.
     16,          85.,          89.,           0.
     17,   87.8284302,    312.17157,           0.
     18,          89.,         315.,           0.
     19,   87.8284302,    317.82843,           0.
     20,          85.,         319.,           0.
** ... 2869 like lines cut
*Element, type=S3
  1,  204,  128,  157
  2,  197,  309,  228
  3,  230,  126,  163
  4,  294, 2520,  219
  5,  113,  220,  153
  6, 2529,  339,  310
  7,  260,  199,  225
  8, 2568,  341,  420
  9,  436,  386,  339
 10, 2577,  242, 2545
 11, 2520,  325,  265
 12,  359,  304,  358
 13, 2561, 2599,  425
 14,  413,  336,  380
 15, 2522,  435,  370
 16,  562, 2641,  505
 17, 2610,  495,  411
 18, 2580,  595,  481
 19, 2540,  424,  412
 20,  613,  551,  521
** ... 86 like lines cut
*Element, type=S4R
 107,  153,  220,  196,  117
 108,  137,  162,  218,  202
 109,  137,    3,  114,  162
 110,  114,    3,    2,  152
 111,  340,  267,  279, 2557
 112,  122,  157,  128,   10
 113, 1421,  659, 2487, 2454
 114,  157,  235,  268,  204
 115,  123,  166,    9,   16
 116,  115,   23,  138,  167
 117,  189,  166,  123,  159
 118,  138,   23,   22,  176
 119,  159,  123,  124,  183
 120,  115,  167,  217,  184
 121,  439,  497,  410,  278
 122, 2533, 2565,  346,  275
 123,  396,  363,  456,  519
 124,  116,  152,    2,    1
 125,  126,  158,   14,   13
 126,  121,  160,   12,   11
** ... 2763 like lines cut
*Nset, nset=_PickedSet2, internal, generate
    1,  2889,     1
*Elset, elset=_PickedSet2, internal, generate
    1,  2889,     1
** Section: tole
*Shell Section, elset=_PickedSet2, material=acier
16., 5
*End Part
**  
**
** ASSEMBLY
**
*Assembly, name=Assembly
**  
*Instance, name=plaque-1, part=plaque
*End Instance
**  
*Node
      1,          85.,         315.,           0.
*Node
      2,          85.,          85.,           0.
*Node
      3,         315.,          85.,           0.
*Node
      4,         315.,         315.,           0.
*Nset, nset=_PickedSet9, internal
 1,
*Nset, nset=_PickedSet11, internal
 2,
*Nset, nset=_PickedSet13, internal
 3,
*Nset, nset=_PickedSet15, internal
 4,
*Nset, nset=_PickedSet16, internal, generate
 1,  4,  1
*Elset, elset=__PickedSurf8_E2, internal, instance=plaque-1
 118, 213
*Elset, elset=__PickedSurf8_E3, internal, instance=plaque-1
 133, 141, 207
*Elset, elset=__PickedSurf8_E4, internal, instance=plaque-1
 135, 202
*Elset, elset=__PickedSurf8_E1, internal, instance=plaque-1
 232,
*Surface, type=ELEMENT, name=_PickedSurf8, internal
__PickedSurf8_E2, E2
__PickedSurf8_E3, E3
__PickedSurf8_E4, E4
__PickedSurf8_E1, E1
*Elset, elset=__PickedSurf10_E3, internal, instance=plaque-1
 115, 125, 126, 200
*Elset, elset=__PickedSurf10_E4, internal, instance=plaque-1
 157, 216
*Elset, elset=__PickedSurf10_E2, internal, instance=plaque-1
 217, 221
*Surface, type=ELEMENT, name=_PickedSurf10, internal
__PickedSurf10_E3, E3
__PickedSurf10_E4, E4
__PickedSurf10_E2, E2
*Elset, elset=__PickedSurf12_E2, internal, instance=plaque-1
 110, 208
*Elset, elset=__PickedSurf12_E3, internal, instance=plaque-1
 124, 127, 153, 175
*Elset, elset=__PickedSurf12_E4, internal, instance=plaque-1
 173, 178
*Surface, type=ELEMENT, name=_PickedSurf12, internal
__PickedSurf12_E2, E2
__PickedSurf12_E3, E3
__PickedSurf12_E4, E4
*Elset, elset=__PickedSurf14_E3, internal, instance=plaque-1
 131, 144, 148, 167
*Elset, elset=__PickedSurf14_E4, internal, instance=plaque-1
 146, 189
*Elset, elset=__PickedSurf14_E2, internal, instance=plaque-1
 225, 229
*Surface, type=ELEMENT, name=_PickedSurf14, internal
__PickedSurf14_E3, E3
__PickedSurf14_E4, E4
__PickedSurf14_E2, E2
** Constraint: Constraint-1
*Coupling, constraint name=Constraint-1, ref node=_PickedSet9, surface=_PickedSurf8
*Kinematic
** Constraint: Constraint-2
*Coupling, constraint name=Constraint-2, ref node=_PickedSet11, surface=_PickedSurf10
*Kinematic
** Constraint: Constraint-3
*Coupling, constraint name=Constraint-3, ref node=_PickedSet13, surface=_PickedSurf12
*Kinematic
** Constraint: Constraint-4
*Coupling, constraint name=Constraint-4, ref node=_PickedSet15, surface=_PickedSurf14
*Kinematic
*End Assembly
** 
** MATERIALS
** 
*Material, name=acier
*Density
 7.86e-09,
*Elastic
210000., 0.26
** ----------------------------------------------------------------
** 
** STEP: analyse_modale
** 
*Step, name=analyse_modale, nlgeom=NO, perturbation
*Frequency, eigensolver=Lanczos, sim, acoustic coupling=on, normalization=mass
, , 500., , , 
** 
** BOUNDARY CONDITIONS
** 
** Name: blocage Type: Symmetry/Antisymmetry/Encastre
*Boundary
_PickedSet16, ENCASTRE
** 
** OUTPUT REQUESTS
** 
*Restart, write, frequency=0
** 
** FIELD OUTPUT: F-Output-1
** 
*Output, field
*Node Output, variable=PRESELECT
** 
** HISTORY OUTPUT: H-Output-1
** 
*Output, history
*Energy Output, variable=ALL
*End Step
