*Heading
** Job name: vibration Model name: Model-1
** Generated by: Abaqus/CAE 2025
*Preprint, echo=NO, model=NO, history=NO, contact=NO
**
** PARTS
**
*Part, name=plaque
*Node
      1,    292.17157,    107.82843,           0.
      2,         291.,         105.,           0.
      3,    292.17157,    102.17157,           0.
      4,         295.,         101.,           0.
      5,    297.82843,    102.17157,           0.
      6,         299.,         105.,           0.
      7,    297.82843,    107.82843,           0.
      8,         295.,         109.,           0.
      9,    102.17157,    107.82843,           0.
     10,         101.,         105.,           0.
     11,    102.17157,    102.17157,           0.
     12,         105.,         101.,           0.
     13,    107.82843,    102.17157,           0.
     14,         109.,         105.,           0.
     15,    107.82843,    107.82843,           0.
     16,         105.,         109.,           0.
     17,    107.82843,    292.17157,           0.
     18,         109.,         295.,           0.
     19,    107.82843,    297.82843,           0.
     20,         105.,         299.,           0.
** ... 3696 like lines cut
*Element, type=S3
  1,  263,  200,  222
  2,  199,  295,  230
  3,  356,  248,  329
  4,  353,  245,  322
  5, 3189,  210,  249
  6,  192,  292,  221
  7, 3216,  376, 3294
  8,  564,  438,  492
  9, 3303,  434,  391
 10,  396,  369,  317
 11, 3255,  425,  323
 12, 3330, 3294,  496
 13,  570,  510,  446
 14,  490, 3252,  432
 15, 3228,  377,  334
 16, 1191, 1041, 1113
 17, 3265,  508,  447
 18,  529,  593,  399
 19, 3264,  628,  480
 20,  560,  494, 3281
** ... 106 like lines cut
*Element, type=S4R
 127,  154,  221,  197,  117
 128,  267,  293,  232,  161
 129,    5,  137,  161,  113
 130,  206,  238,  174,  138
 131,    3,  114,  167,  138
 132,  114,    3,    2,  150
 133,  236,  266,  204,  195
 134,  122,  164,   11,   10
 135,  386, 3289,  513,  444
 136,   94, 3165, 3113,   95
 137,   10,  123,  158,  122
 138,  124,  165,    9,   16
 139,   23,  139,  166,  115
 140,  139,   23,   22,  175
 141,   16,  125,  159,  124
 142,  159,  214,  191,  124
 143,  355,  280,  403,  394
 144,  173,  144,  187,  233
 145,  402,  393,  352,  278
 146,  116,  150,    2,    1
** ... 3580 like lines cut
*Nset, nset=_PickedSet2, internal, generate
    1,  3716,     1
*Elset, elset=_PickedSet2, internal, generate
    1,  3726,     1
** Section: tole
*Shell Section, elset=_PickedSet2, material=cuivre
1., 5
*End Part
**  
**
** ASSEMBLY
**
*Assembly, name=Assembly
**  
*Instance, name=plaque-1, part=plaque
*End Instance
**  
*Node
      1,         105.,         295.,           0.
*Node
      2,         105.,         105.,           0.
*Node
      3,         295.,         105.,           0.
*Node
      4,         295.,         295.,           0.
*Nset, nset=_PickedSet9, internal
 1,
*Nset, nset=_PickedSet11, internal
 2,
*Nset, nset=_PickedSet13, internal
 3,
*Nset, nset=_PickedSet15, internal
 4,
*Nset, nset=_PickedSet16, internal, generate
 1,  4,  1
*Elset, elset=__PickedSurf8_E2, internal, instance=plaque-1
 140, 236, 238
*Elset, elset=__PickedSurf8_E3, internal, instance=plaque-1
 154, 162
*Elset, elset=__PickedSurf8_E4, internal, instance=plaque-1
 156,
*Elset, elset=__PickedSurf8_E1, internal, instance=plaque-1
 226, 260
*Surface, type=ELEMENT, name=_PickedSurf8, internal
__PickedSurf8_E2, E2
__PickedSurf8_E3, E3
__PickedSurf8_E4, E4
__PickedSurf8_E1, E1
*Elset, elset=__PickedSurf10_E3, internal, instance=plaque-1
 134, 138, 182, 234
*Elset, elset=__PickedSurf10_E4, internal, instance=plaque-1
 221,
*Elset, elset=__PickedSurf10_E2, internal, instance=plaque-1
 239, 242, 244
*Surface, type=ELEMENT, name=_PickedSurf10, internal
__PickedSurf10_E3, E3
__PickedSurf10_E4, E4
__PickedSurf10_E2, E2
*Elset, elset=__PickedSurf12_E2, internal, instance=plaque-1
 132, 230, 233
*Elset, elset=__PickedSurf12_E3, internal, instance=plaque-1
 146, 149, 176, 194
*Elset, elset=__PickedSurf12_E4, internal, instance=plaque-1
 196,
*Surface, type=ELEMENT, name=_PickedSurf12, internal
__PickedSurf12_E2, E2
__PickedSurf12_E3, E3
__PickedSurf12_E4, E4
*Elset, elset=__PickedSurf14_E3, internal, instance=plaque-1
 152, 165, 169, 170
*Elset, elset=__PickedSurf14_E2, internal, instance=plaque-1
 247, 248, 251, 254
*Surface, type=ELEMENT, name=_PickedSurf14, internal
__PickedSurf14_E3, E3
__PickedSurf14_E2, E2
** Constraint: Constraint-1
*Coupling, constraint name=Constraint-1, ref node=_PickedSet9, surface=_PickedSurf8
*Kinematic
** Constraint: Constraint-2
*Coupling, constraint name=Constraint-2, ref node=_PickedSet11, surface=_PickedSurf10
*Kinematic
** Constraint: Constraint-3
*Coupling, constraint name=Constraint-3, ref node=_PickedSet13, surface=_PickedSurf12
*Kinematic
** Constraint: Constraint-4
*Coupling, constraint name=Constraint-4, ref node=_PickedSet15, surface=_PickedSurf14
*Kinematic
*End Assembly
** 
** MATERIALS
** 
*Material, name=cuivre
*Density
 8.96e-09,
*Elastic
124000., 0.36
** ----------------------------------------------------------------
** 
** STEP: analyse_modale
** 
*Step, name=analyse_modale, nlgeom=NO, perturbation
*Frequency, eigensolver=Lanczos, sim, acoustic coupling=on, normalization=mass
, , 500., , , 
** 
** BOUNDARY CONDITIONS
** 
** Name: blocage Type: Symmetry/Antisymmetry/Encastre
*Boundary
_PickedSet16, ENCASTRE
** 
** OUTPUT REQUESTS
** 
*Restart, write, frequency=0
** 
** FIELD OUTPUT: F-Output-1
** 
*Output, field
*Node Output, variable=PRESELECT
** 
** HISTORY OUTPUT: H-Output-1
** 
*Output, history
*Energy Output, variable=ALL
*End Step
