*Heading
** Job name: vibration Model name: Model-1
** Generated by: Abaqus/CAE 2025
*Preprint, echo=NO, model=NO, history=NO, contact=NO
**
** PARTS
**
*Part, name=plaque
*Node
      1,    282.17157,    117.82843,           0.
      2,         281.,         115.,           0.
      3,    282.17157,    112.17157,           0.
      4,         285.,         111.,           0.
      5,    287.82843,    112.17157,           0.
      6,         289.,         115.,           0.
      7,    287.82843,    117.82843,           0.
      8,         285.,         119.,           0.
      9,    112.17157,    117.82843,           0.
     10,         111.,         115.,           0.
     11,    112.17157,    112.17157,           0.
     12,         115.,         111.,           0.
     13,    117.82843,    112.17157,           0.
     14,         119.,         115.,           0.
     15,    117.82843,    117.82843,           0.
     16,         115.,         119.,           0.
     17,    117.82843,    282.17157,           0.
     18,         119.,         285.,           0.
     19,    117.82843,    287.82843,           0.
     20,         115.,         289.,           0.
** ... 3570 like lines cut
*Element, type=S3
 1,  290,  327,  220
 2, 3195,  923,  705
 3,  189,  217,  165
 4,  163,   19,  140
 5,  198,  294,  223
 6,  190,  284,  218
 7,  205,  302,  237
 8,  350,  345,  305
 9,  424,  370,  396
10,  717,  924,  648
11,  573,  789,  642
12,  437,  638,  506
13, 3187,  606,  411
14,  439,  375,  332
15, 3150,  392,  400
16,  990, 3251,  910
17,  574,  787,  645
18,  637, 3159,  512
19,  545,  481,  457
20, 3199,  594,  742
** ... 78 like lines cut
*Element, type=S4R
  99,  154,  220,  194,  117
 100,  504,  376,  335,  442
 101,  136,  161,    5,    4
 102,  114,  167,    3,    2
 103,  234,  263,  204,  197
 104,  122,  164,   11,   10
 105,   94, 3040, 2974,   95
 106,   10,  123,  158,  122
 107,  138,  166,   23,   22
 108,  115,   24,   23,  166
 109,  314,  359,  272, 3066
 110,  400,  392,  347, 3126
 111,  143,  173,    8,    7
 112,  125,  210,  147,   15
 113,  151,  114,  116,  185
 114,  159,   14,  126, 3060
 115,   12,  121,  160,  127
 116,    6,  113,  154,  117
 117,  167,  231,  207,  137
 118,  142,  149,   18,   17
** ... 3468 like lines cut
*Nset, nset=_PickedSet2, internal, generate
    1,  3590,     1
*Elset, elset=_PickedSet2, internal, generate
    1,  3586,     1
** Section: tole
*Shell Section, elset=_PickedSet2, material=aluminium
0.5, 5
*End Part
**  
**
** ASSEMBLY
**
*Assembly, name=Assembly
**  
*Instance, name=plaque-1, part=plaque
*End Instance
**  
*Node
      1,         115.,         285.,           0.
*Node
      2,         115.,         115.,           0.
*Node
      3,         285.,         115.,           0.
*Node
      4,         285.,         285.,           0.
*Nset, nset=_PickedSet9, internal
 1,
*Nset, nset=_PickedSet11, internal
 2,
*Nset, nset=_PickedSet13, internal
 3,
*Nset, nset=_PickedSet15, internal
 4,
*Nset, nset=_PickedSet16, internal, generate
 1,  4,  1
*Elset, elset=__PickedSurf8_E3, internal, instance=plaque-1
 107, 118, 125
*Elset, elset=__PickedSurf8_E2, internal, instance=plaque-1
 108, 204, 205, 207, 231
*Surface, type=ELEMENT, name=_PickedSurf8, internal
__PickedSurf8_E3, E3
__PickedSurf8_E2, E2
*Elset, elset=__PickedSurf10_E3, internal, instance=plaque-1
 104, 149
*Elset, elset=__PickedSurf10_E4, internal, instance=plaque-1
 187, 201
*Elset, elset=__PickedSurf10_E2, internal, instance=plaque-1
 208, 211, 213, 215
*Surface, type=ELEMENT, name=_PickedSurf10, internal
__PickedSurf10_E3, E3
__PickedSurf10_E4, E4
__PickedSurf10_E2, E2
*Elset, elset=__PickedSurf12_E3, internal, instance=plaque-1
 101, 102, 111
*Elset, elset=__PickedSurf12_E2, internal, instance=plaque-1
 198, 202, 229
*Elset, elset=__PickedSurf12_E1, internal, instance=plaque-1
 199, 203
*Surface, type=ELEMENT, name=_PickedSurf12, internal
__PickedSurf12_E3, E3
__PickedSurf12_E2, E2
__PickedSurf12_E1, E1
*Elset, elset=__PickedSurf14_E3, internal, instance=plaque-1
 119, 131, 134, 135
*Elset, elset=__PickedSurf14_E2, internal, instance=plaque-1
 218, 219, 222, 225
*Surface, type=ELEMENT, name=_PickedSurf14, internal
__PickedSurf14_E3, E3
__PickedSurf14_E2, E2
** Constraint: Constraint-1
*Coupling, constraint name=Constraint-1, ref node=_PickedSet9, surface=_PickedSurf8
*Kinematic
** Constraint: Constraint-2
*Coupling, constraint name=Constraint-2, ref node=_PickedSet11, surface=_PickedSurf10
*Kinematic
** Constraint: Constraint-3
*Coupling, constraint name=Constraint-3, ref node=_PickedSet13, surface=_PickedSurf12
*Kinematic
** Constraint: Constraint-4
*Coupling, constraint name=Constraint-4, ref node=_PickedSet15, surface=_PickedSurf14
*Kinematic
*End Assembly
** 
** MATERIALS
** 
*Material, name=aluminium
*Density
 2.7e-09,
*Elastic
69000., 0.33
** ----------------------------------------------------------------
** 
** STEP: analyse_modale
** 
*Step, name=analyse_modale, nlgeom=NO, perturbation
*Frequency, eigensolver=Lanczos, sim, acoustic coupling=on, normalization=mass
, , 500., , , 
** 
** BOUNDARY CONDITIONS
** 
** Name: blocage Type: Symmetry/Antisymmetry/Encastre
*Boundary
_PickedSet16, ENCASTRE
** 
** OUTPUT REQUESTS
** 
*Restart, write, frequency=0
** 
** FIELD OUTPUT: F-Output-1
** 
*Output, field
*Node Output, variable=PRESELECT
** 
** HISTORY OUTPUT: H-Output-1
** 
*Output, history
*Energy Output, variable=ALL
*End Step
