*Heading
** Job name: vibration Model name: Model-1
** Generated by: Abaqus/CAE 2025
*Preprint, echo=NO, model=NO, history=NO, contact=NO
**
** PARTS
**
*Part, name=plaque
*Node
      1,        370.5,          25.,           0.
      2,         375.,         20.5,           0.
      3,        379.5,          25.,           0.
      4,         375.,         29.5,           0.
      5,         20.5,          25.,           0.
      6,          25.,         20.5,           0.
      7,         29.5,          25.,           0.
      8,          25.,         29.5,           0.
      9,         29.5,         375.,           0.
     10,          25.,        379.5,           0.
     11,         20.5,         375.,           0.
     12,          25.,        370.5,           0.
     13,        379.5,         375.,           0.
     14,         375.,        379.5,           0.
     15,        370.5,         375.,           0.
     16,         375.,        370.5,           0.
     17,         400.,           0.,           0.
     18,           0.,           0.,           0.
     19,         400.,         400.,           0.
     20,           0.,         400.,           0.
** ... 72 like lines cut
*Element, type=S3
 1, 69, 59, 58
 2, 29, 67, 35
 3, 57, 20, 11
 4, 52, 12, 11
 5, 52, 50, 12
 6, 63, 14, 13
 7,  1, 37, 39
 8, 54,  9, 51
 9, 59, 61, 58
10, 18,  5, 43
11, 41, 39, 37
12, 38,  4,  3
13, 37, 38, 68
14, 40, 21, 17
15, 40, 17,  2
16, 17,  3,  2
17, 43, 27, 18
18, 43,  5, 42
19, 42,  5,  8
20, 47, 49, 45
** ... 28 like lines cut
*Element, type=S4R
 49, 74, 36, 31, 65
 50,  8,  7, 45, 44
 51, 49, 47, 71, 72
 52, 26, 25, 34, 32
 53, 15, 62, 70, 69
 54, 33, 24, 23, 90
 55, 34, 25, 56, 73
 56, 38,  3, 17, 24
 57, 33, 68, 38, 24
 58, 83, 78, 90, 88
 59, 69, 58, 81, 16
 60, 42,  8, 44, 46
 61,  9, 12, 50, 51
 62, 70, 60, 59, 69
 63, 43, 42, 46, 77
 64, 13, 81, 64, 63
 65, 56, 54, 51, 73
 66,  1, 39, 40,  2
 67, 74, 41, 37, 68
 68, 36, 35, 87, 31
** ... 37 like lines cut
*Nset, nset=_PickedSet2, internal, generate
  1,  92,   1
*Elset, elset=_PickedSet2, internal, generate
   1,  105,    1
** Section: tole
*Shell Section, elset=_PickedSet2, material=acier
1., 5
*End Part
**  
**
** ASSEMBLY
**
*Assembly, name=Assembly
**  
*Instance, name=plaque-1, part=plaque
*End Instance
**  
*Node
      1,          25.,         375.,           0.
*Node
      2,          25.,          25.,           0.
*Node
      3,         375.,          25.,           0.
*Node
      4,         375.,         375.,           0.
*Nset, nset=_PickedSet9, internal
 1,
*Nset, nset=_PickedSet11, internal
 2,
*Nset, nset=_PickedSet13, internal
 3,
*Nset, nset=_PickedSet15, internal
 4,
*Nset, nset=_PickedSet16, internal, generate
 1,  4,  1
*Elset, elset=__PickedSurf8_E2, internal, instance=plaque-1
  4, 30
*Elset, elset=__PickedSurf8_E3, internal, instance=plaque-1
 28,
*Elset, elset=__PickedSurf8_E1, internal, instance=plaque-1
 61,
*Surface, type=ELEMENT, name=_PickedSurf8, internal
__PickedSurf8_E2, E2
__PickedSurf8_E3, E3
__PickedSurf8_E1, E1
*Elset, elset=__PickedSurf10_E2, internal, instance=plaque-1
 19, 23
*Elset, elset=__PickedSurf10_E3, internal, instance=plaque-1
 21,
*Elset, elset=__PickedSurf10_E1, internal, instance=plaque-1
 50,
*Surface, type=ELEMENT, name=_PickedSurf10, internal
__PickedSurf10_E2, E2
__PickedSurf10_E3, E3
__PickedSurf10_E1, E1
*Elset, elset=__PickedSurf12_E2, internal, instance=plaque-1
 12, 16, 75
*Elset, elset=__PickedSurf12_E4, internal, instance=plaque-1
 66,
*Surface, type=ELEMENT, name=_PickedSurf12, internal
__PickedSurf12_E2, E2
__PickedSurf12_E4, E4
*Elset, elset=__PickedSurf14_E2, internal, instance=plaque-1
  6, 31, 33, 40
*Surface, type=ELEMENT, name=_PickedSurf14, internal
__PickedSurf14_E2, E2
** Constraint: Constraint-1
*Coupling, constraint name=Constraint-1, ref node=_PickedSet9, surface=_PickedSurf8
*Kinematic
** Constraint: Constraint-2
*Coupling, constraint name=Constraint-2, ref node=_PickedSet11, surface=_PickedSurf10
*Kinematic
** Constraint: Constraint-3
*Coupling, constraint name=Constraint-3, ref node=_PickedSet13, surface=_PickedSurf12
*Kinematic
** Constraint: Constraint-4
*Coupling, constraint name=Constraint-4, ref node=_PickedSet15, surface=_PickedSurf14
*Kinematic
*End Assembly
** 
** MATERIALS
** 
*Material, name=acier
*Density
 7.86e-09,
*Elastic
210000., 0.26
** ----------------------------------------------------------------
** 
** STEP: analyse_modale
** 
*Step, name=analyse_modale, nlgeom=NO, perturbation
*Frequency, eigensolver=Lanczos, sim, acoustic coupling=on, normalization=mass
, , 500., , , 
** 
** BOUNDARY CONDITIONS
** 
** Name: blocage Type: Symmetry/Antisymmetry/Encastre
*Boundary
_PickedSet16, ENCASTRE
** 
** OUTPUT REQUESTS
** 
*Restart, write, frequency=0
** 
** FIELD OUTPUT: F-Output-1
** 
*Output, field
*Node Output, variable=PRESELECT
** 
** HISTORY OUTPUT: H-Output-1
** 
*Output, history
*Energy Output, variable=ALL
*End Step
