*Heading
** Job name: vibration Model name: Model-1
** Generated by: Abaqus/CAE 2025
*Preprint, echo=NO, model=NO, history=NO, contact=NO
**
** PARTS
**
*Part, name=plaque
*Node
      1,        370.5,          25.,           0.
      2,         375.,         20.5,           0.
      3,        379.5,          25.,           0.
      4,         375.,         29.5,           0.
      5,         20.5,          25.,           0.
      6,          25.,         20.5,           0.
      7,         29.5,          25.,           0.
      8,          25.,         29.5,           0.
      9,         29.5,         375.,           0.
     10,          25.,        379.5,           0.
     11,         20.5,         375.,           0.
     12,          25.,        370.5,           0.
     13,        379.5,         375.,           0.
     14,         375.,        379.5,           0.
     15,        370.5,         375.,           0.
     16,         375.,        370.5,           0.
     17,         400.,           0.,           0.
     18,           0.,           0.,           0.
     19,         400.,         400.,           0.
     20,           0.,         400.,           0.
** ... 101 like lines cut
*Element, type=S3
 1,  57,  20,  10
 2,  68,  18,  74
 3,  42,   3,  17
 4,  62, 108,  71
 5,  21,  48,  18
 6,  55,  51,  53
 7,   2,  44,  17
 8,  41,  39,   4
 9,  22,  42,  17
10,  97,  86,  39
11,  44,  21,  17
12,  44,   2,   1
13,  44,   1,  40
14,  17,   3,   2
15,  67,  45,  79
16,  81,  66,   5
17,  72,  45,  50
18,  69,  83,  21
19,   6,  74,   7
20,  18,  68,  80
** ... 34 like lines cut
*Element, type=S4R
 55,   4,   3,  42,  41
 56,  12,  11,  54,  53
 57,  56,   9,  52,  58
 58,   8,  50,  45,  46
 59,  49,  47,  84,  85
 60,  40,  69,  21,  44
 61,  79,  45,  49,  95
 62,  83,  69, 114, 105
 63,  39,  40,   1,   4
 64,  31,  77,  59,  78
 65,  97,  35, 101,  86
 66, 108, 109,  28,  78
 67,  96,  55, 107,  36
 68,  47,  49,  45,  72
 69,  51,  52,   9,  12
 70,  39,  41,  43,  97
 71,   8,  46,  81,   5
 72,  57,  56,  58,  75
 73,  70,  71,  59,  60
 74,  16,  64,  61,  70
** ... 65 like lines cut
*Nset, nset=_PickedSet2, internal, generate
   1,  121,    1
*Elset, elset=_PickedSet2, internal, generate
   1,  139,    1
** Section: tole
*Shell Section, elset=_PickedSet2, material=acier
1., 5
*End Part
**  
**
** ASSEMBLY
**
*Assembly, name=Assembly
**  
*Instance, name=plaque-1, part=plaque
*End Instance
**  
*Node
      1,          25.,         375.,           0.
*Node
      2,          25.,          25.,           0.
*Node
      3,         375.,          25.,           0.
*Node
      4,         375.,         375.,           0.
*Nset, nset=_PickedSet9, internal
 1,
*Nset, nset=_PickedSet11, internal
 2,
*Nset, nset=_PickedSet13, internal
 3,
*Nset, nset=_PickedSet15, internal
 4,
*Nset, nset=_PickedSet16, internal, generate
 1,  4,  1
*Elset, elset=__PickedSurf8_E3, internal, instance=plaque-1
 27, 69, 99
*Elset, elset=__PickedSurf8_E1, internal, instance=plaque-1
 56,
*Surface, type=ELEMENT, name=_PickedSurf8, internal
__PickedSurf8_E3, E3
__PickedSurf8_E1, E1
*Elset, elset=__PickedSurf10_E3, internal, instance=plaque-1
 19, 92
*Elset, elset=__PickedSurf10_E2, internal, instance=plaque-1
 23,
*Elset, elset=__PickedSurf10_E4, internal, instance=plaque-1
 71,
*Surface, type=ELEMENT, name=_PickedSurf10, internal
__PickedSurf10_E3, E3
__PickedSurf10_E2, E2
__PickedSurf10_E4, E4
*Elset, elset=__PickedSurf12_E2, internal, instance=plaque-1
 12, 14
*Elset, elset=__PickedSurf12_E1, internal, instance=plaque-1
 55,
*Elset, elset=__PickedSurf12_E3, internal, instance=plaque-1
 63,
*Surface, type=ELEMENT, name=_PickedSurf12, internal
__PickedSurf12_E2, E2
__PickedSurf12_E1, E1
__PickedSurf12_E3, E3
*Elset, elset=__PickedSurf14_E3, internal, instance=plaque-1
 33, 37
*Elset, elset=__PickedSurf14_E4, internal, instance=plaque-1
 104,
*Elset, elset=__PickedSurf14_E2, internal, instance=plaque-1
 105,
*Surface, type=ELEMENT, name=_PickedSurf14, internal
__PickedSurf14_E3, E3
__PickedSurf14_E4, E4
__PickedSurf14_E2, E2
** Constraint: Constraint-1
*Coupling, constraint name=Constraint-1, ref node=_PickedSet9, surface=_PickedSurf8
*Kinematic
** Constraint: Constraint-2
*Coupling, constraint name=Constraint-2, ref node=_PickedSet11, surface=_PickedSurf10
*Kinematic
** Constraint: Constraint-3
*Coupling, constraint name=Constraint-3, ref node=_PickedSet13, surface=_PickedSurf12
*Kinematic
** Constraint: Constraint-4
*Coupling, constraint name=Constraint-4, ref node=_PickedSet15, surface=_PickedSurf14
*Kinematic
*End Assembly
** 
** MATERIALS
** 
*Material, name=acier
*Density
 7.86e-09,
*Elastic
210000., 0.26
** ----------------------------------------------------------------
** 
** STEP: analyse_modale
** 
*Step, name=analyse_modale, nlgeom=NO, perturbation
*Frequency, eigensolver=Lanczos, sim, acoustic coupling=on, normalization=mass
, , 500., , , 
** 
** BOUNDARY CONDITIONS
** 
** Name: blocage Type: Symmetry/Antisymmetry/Encastre
*Boundary
_PickedSet16, ENCASTRE
** 
** OUTPUT REQUESTS
** 
*Restart, write, frequency=0
** 
** FIELD OUTPUT: F-Output-1
** 
*Output, field
*Node Output, variable=PRESELECT
** 
** HISTORY OUTPUT: H-Output-1
** 
*Output, history
*Energy Output, variable=ALL
*End Step
