*Heading
** Job name: vibration Model name: Model-1
** Generated by: Abaqus/CAE 2025
*Preprint, echo=NO, model=NO, history=NO, contact=NO
**
** PARTS
**
*Part, name=plaque
*Node
      1,        370.5,          25.,           0.
      2,         375.,         20.5,           0.
      3,        379.5,          25.,           0.
      4,         375.,         29.5,           0.
      5,         20.5,          25.,           0.
      6,          25.,         20.5,           0.
      7,         29.5,          25.,           0.
      8,          25.,         29.5,           0.
      9,         29.5,         375.,           0.
     10,          25.,        379.5,           0.
     11,         20.5,         375.,           0.
     12,          25.,        370.5,           0.
     13,        379.5,         375.,           0.
     14,         375.,        379.5,           0.
     15,        370.5,         375.,           0.
     16,         375.,        370.5,           0.
     17,         400.,           0.,           0.
     18,           0.,           0.,           0.
     19,         400.,         400.,           0.
     20,           0.,         400.,           0.
** ... 351 like lines cut
*Element, type=S3
  1, 202, 206,  10
  2, 213,  29, 209
  3, 242,  46, 213
  4, 196, 215,   8
  5, 204, 268, 231
  6, 229, 192, 191
  7, 213,  37,  29
  8,  18, 247, 246
  9, 212,  15,  14
 10, 194,   1, 190
 11,  39,  32, 199
 12,  56, 222,  60
 13,  71,  22,  57
 14,  66,  77,  53
 15, 116, 124,  88
 16, 332, 100, 339
 17, 130,  99, 113
 18, 337, 180, 165
 19, 158, 124, 137
 20, 152, 162,  74
** ... 120 like lines cut
*Element, type=S4R
141,   2, 217, 219,   3
142, 276, 275, 222, 262
143,  63,  65,  48,  37
144, 191, 192, 228, 193
145,  68,  70,  84, 100
146, 268, 203, 201, 205
147, 211, 242, 213, 209
148, 239, 297, 269,  33
149,  31, 238, 210, 234
150,  44,  52,  66,  53
151,  85, 101,  69,  56
152,  69,  79,  51,  42
153, 271, 270, 198, 286
154, 197, 195,   7, 248
155,  80,  58,  51,  79
156,  34,  58, 290,  30
157,   4,   3, 229, 191
158, 218,   2,   1, 254
159, 191, 193, 189,   4
160, 207, 262,  36, 200
** ... 270 like lines cut
*Nset, nset=_PickedSet2, internal, generate
   1,  371,    1
*Elset, elset=_PickedSet2, internal, generate
   1,  430,    1
** Section: tole
*Shell Section, elset=_PickedSet2, material=acier
1., 5
*End Part
**  
**
** ASSEMBLY
**
*Assembly, name=Assembly
**  
*Instance, name=plaque-1, part=plaque
*End Instance
**  
*Node
      1,          25.,         375.,           0.
*Node
      2,          25.,          25.,           0.
*Node
      3,         375.,          25.,           0.
*Node
      4,         375.,         375.,           0.
*Nset, nset=_PickedSet9, internal
 1,
*Nset, nset=_PickedSet11, internal
 2,
*Nset, nset=_PickedSet13, internal
 3,
*Nset, nset=_PickedSet15, internal
 4,
*Nset, nset=_PickedSet16, internal, generate
 1,  4,  1
*Elset, elset=__PickedSurf8_E2, internal, instance=plaque-1
 36, 38, 48
*Elset, elset=__PickedSurf8_E1, internal, instance=plaque-1
 350,
*Surface, type=ELEMENT, name=_PickedSurf8, internal
__PickedSurf8_E2, E2
__PickedSurf8_E1, E1
*Elset, elset=__PickedSurf10_E1, internal, instance=plaque-1
  66, 162
*Elset, elset=__PickedSurf10_E2, internal, instance=plaque-1
 195,
*Elset, elset=__PickedSurf10_E4, internal, instance=plaque-1
 372,
*Surface, type=ELEMENT, name=_PickedSurf10, internal
__PickedSurf10_E1, E1
__PickedSurf10_E2, E2
__PickedSurf10_E4, E4
*Elset, elset=__PickedSurf12_E4, internal, instance=plaque-1
 141, 342
*Elset, elset=__PickedSurf12_E1, internal, instance=plaque-1
 157,
*Elset, elset=__PickedSurf12_E2, internal, instance=plaque-1
 158,
*Surface, type=ELEMENT, name=_PickedSurf12, internal
__PickedSurf12_E4, E4
__PickedSurf12_E1, E1
__PickedSurf12_E2, E2
*Elset, elset=__PickedSurf14_E2, internal, instance=plaque-1
 9,
*Elset, elset=__PickedSurf14_E3, internal, instance=plaque-1
  41, 169
*Elset, elset=__PickedSurf14_E4, internal, instance=plaque-1
 354,
*Surface, type=ELEMENT, name=_PickedSurf14, internal
__PickedSurf14_E2, E2
__PickedSurf14_E3, E3
__PickedSurf14_E4, E4
** Constraint: Constraint-1
*Coupling, constraint name=Constraint-1, ref node=_PickedSet9, surface=_PickedSurf8
*Kinematic
** Constraint: Constraint-2
*Coupling, constraint name=Constraint-2, ref node=_PickedSet11, surface=_PickedSurf10
*Kinematic
** Constraint: Constraint-3
*Coupling, constraint name=Constraint-3, ref node=_PickedSet13, surface=_PickedSurf12
*Kinematic
** Constraint: Constraint-4
*Coupling, constraint name=Constraint-4, ref node=_PickedSet15, surface=_PickedSurf14
*Kinematic
*End Assembly
** 
** MATERIALS
** 
*Material, name=acier
*Density
 7.86e-09,
*Elastic
210000., 0.26
** ----------------------------------------------------------------
** 
** STEP: analyse_modale
** 
*Step, name=analyse_modale, nlgeom=NO, perturbation
*Frequency, eigensolver=Lanczos, sim, acoustic coupling=on, normalization=mass
, , 500., , , 
** 
** BOUNDARY CONDITIONS
** 
** Name: blocage Type: Symmetry/Antisymmetry/Encastre
*Boundary
_PickedSet16, ENCASTRE
** 
** OUTPUT REQUESTS
** 
*Restart, write, frequency=0
** 
** FIELD OUTPUT: F-Output-1
** 
*Output, field
*Node Output, variable=PRESELECT
** 
** HISTORY OUTPUT: H-Output-1
** 
*Output, history
*Energy Output, variable=ALL
*End Step
