*Heading
** Job name: vibration Model name: Model-1
** Generated by: Abaqus/CAE 2025
*Preprint, echo=NO, model=NO, history=NO, contact=NO
**
** PARTS
**
*Part, name=plaque
*Node
      1,   350.843964,   49.1560402,           0.
      2,   349.672394,   46.3276138,           0.
      3,   350.843964,   43.4991875,           0.
      4,   353.672394,   42.3276138,           0.
      5,   356.500824,   43.4991875,           0.
      6,   357.672394,   46.3276138,           0.
      7,   356.500824,   49.1560402,           0.
      8,   353.672394,   50.3276138,           0.
      9,   43.4991875,   49.1560402,           0.
     10,   42.3276138,   46.3276138,           0.
     11,   43.4991875,   43.4991875,           0.
     12,   46.3276138,   42.3276138,           0.
     13,   49.1560402,   43.4991875,           0.
     14,   50.3276138,   46.3276138,           0.
     15,   49.1560402,   49.1560402,           0.
     16,   46.3276138,   50.3276138,           0.
     17,   49.1560402,   350.843964,           0.
     18,   50.3276138,   353.672394,           0.
     19,   49.1560402,   356.500824,           0.
     20,   46.3276138,   357.672394,           0.
** ... 1210 like lines cut
*Element, type=S3
 1,  123,   21,   20
 2,  236,  137, 1092
 3,  264, 1116,  220
 4, 1093,  274,  210
 5, 1074,  209,  145
 6,  181,  255,  224
 7, 1112, 1100,  291
 8,  234,  216,  183
 9,  265,  214,  226
10,  287,  246,  250
11,  277,  225,  254
12,  213,  263,  239
13, 1114,  308,  258
14, 1132, 1144, 1118
15,  539,  481,  510
16,  487,  447,  465
17,  474,  439,  431
18,  530,  490,  480
19,  580,  544,  512
20, 1199,  611,  583
** ... 36 like lines cut
*Element, type=S4R
  57,  186, 1112, 1109, 1108
  58,  186,  118,  158, 1112
  59,  118,    5,  136,  158
  60,    3, 1076,  137,    4
  61,  119,    3,    2,  121
  62,  190, 1104,  157,  124
  63,  154, 1079,  125,  191
  64, 1119, 1099, 1087, 1068
  65,  126,    9,  117,  194
  66,  117,    9,   16,  175
  67,  138,  187, 1081,   23
  68,  138,   23,   22, 1082
  69,  127,  164,   15,   14
  70,  237,  250,  197,  173
  71,  165,  181,  115, 1081
  72,  128,   14,   13,  155
  73,  143,    8,  114,  170
  74,  278,  300,  251,  244
  75,  127,   14,  128,  173
  76, 1078,   12,  124,  157
** ... 1129 like lines cut
*Nset, nset=_PickedSet2, internal, generate
    1,  1230,     1
*Elset, elset=_PickedSet2, internal, generate
    1,  1205,     1
** Section: tole
*Shell Section, elset=_PickedSet2, material=acier
1., 5
*End Part
**  
**
** ASSEMBLY
**
*Assembly, name=Assembly
**  
*Instance, name=plaque-1, part=plaque
*End Instance
**  
*Node
      1,   46.3276138,   353.672394,           0.
*Node
      2,   46.3276138,   46.3276138,           0.
*Node
      3,   353.672394,   46.3276138,           0.
*Node
      4,   353.672394,   353.672394,           0.
*Nset, nset=_PickedSet9, internal
 1,
*Nset, nset=_PickedSet11, internal
 2,
*Nset, nset=_PickedSet13, internal
 3,
*Nset, nset=_PickedSet15, internal
 4,
*Nset, nset=_PickedSet16, internal, generate
 1,  4,  1
*Elset, elset=__PickedSurf8_E2, internal, instance=plaque-1
   1,  68, 157, 166
*Elset, elset=__PickedSurf8_E3, internal, instance=plaque-1
 40, 83, 87
*Elset, elset=__PickedSurf8_E4, internal, instance=plaque-1
 158,
*Surface, type=ELEMENT, name=_PickedSurf8, internal
__PickedSurf8_E2, E2
__PickedSurf8_E3, E3
__PickedSurf8_E4, E4
*Elset, elset=__PickedSurf10_E2, internal, instance=plaque-1
  66,  72, 167, 171
*Elset, elset=__PickedSurf10_E3, internal, instance=plaque-1
 69,
*Elset, elset=__PickedSurf10_E4, internal, instance=plaque-1
 144, 169
*Elset, elset=__PickedSurf10_E1, internal, instance=plaque-1
 168,
*Surface, type=ELEMENT, name=_PickedSurf10, internal
__PickedSurf10_E2, E2
__PickedSurf10_E3, E3
__PickedSurf10_E4, E4
__PickedSurf10_E1, E1
*Elset, elset=__PickedSurf12_E4, internal, instance=plaque-1
  60,  77, 102, 123
*Elset, elset=__PickedSurf12_E2, internal, instance=plaque-1
  61, 161
*Elset, elset=__PickedSurf12_E3, internal, instance=plaque-1
 91,
*Elset, elset=__PickedSurf12_E1, internal, instance=plaque-1
 160,
*Surface, type=ELEMENT, name=_PickedSurf12, internal
__PickedSurf12_E4, E4
__PickedSurf12_E2, E2
__PickedSurf12_E3, E3
__PickedSurf12_E1, E1
*Elset, elset=__PickedSurf14_E2, internal, instance=plaque-1
  79,  95, 155, 174, 175
*Elset, elset=__PickedSurf14_E3, internal, instance=plaque-1
  82,  96, 114
*Surface, type=ELEMENT, name=_PickedSurf14, internal
__PickedSurf14_E2, E2
__PickedSurf14_E3, E3
** Constraint: Constraint-1
*Coupling, constraint name=Constraint-1, ref node=_PickedSet9, surface=_PickedSurf8
*Kinematic
** Constraint: Constraint-2
*Coupling, constraint name=Constraint-2, ref node=_PickedSet11, surface=_PickedSurf10
*Kinematic
** Constraint: Constraint-3
*Coupling, constraint name=Constraint-3, ref node=_PickedSet13, surface=_PickedSurf12
*Kinematic
** Constraint: Constraint-4
*Coupling, constraint name=Constraint-4, ref node=_PickedSet15, surface=_PickedSurf14
*Kinematic
*End Assembly
** 
** MATERIALS
** 
*Material, name=acier
*Density
 7.86e-09,
*Elastic
210000., 0.26
** ----------------------------------------------------------------
** 
** STEP: analyse_modale
** 
*Step, name=analyse_modale, nlgeom=NO, perturbation
*Frequency, eigensolver=Lanczos, sim, acoustic coupling=on, normalization=mass
, , 500., , , 
** 
** BOUNDARY CONDITIONS
** 
** Name: blocage Type: Symmetry/Antisymmetry/Encastre
*Boundary
_PickedSet16, ENCASTRE
** 
** OUTPUT REQUESTS
** 
*Restart, write, frequency=0
** 
** FIELD OUTPUT: F-Output-1
** 
*Output, field
*Node Output, variable=PRESELECT
** 
** HISTORY OUTPUT: H-Output-1
** 
*Output, history
*Energy Output, variable=ALL
*End Step
