*Heading
** Job name: vibration Model name: Model-1
** Generated by: Abaqus/CAE 2025
*Preprint, echo=NO, model=NO, history=NO, contact=NO
**
** PARTS
**
*Part, name=plaque
*Node
      1,   353.121124,   46.8788872,           0.
      2,   351.949554,    44.050457,           0.
      3,   353.121124,   41.2220306,           0.
      4,   355.949554,    40.050457,           0.
      5,   358.777954,   41.2220306,           0.
      6,   359.949554,    44.050457,           0.
      7,   358.777954,   46.8788872,           0.
      8,   355.949554,    48.050457,           0.
      9,   41.2220306,   46.8788872,           0.
     10,    40.050457,    44.050457,           0.
     11,   41.2220306,   41.2220306,           0.
     12,    44.050457,    40.050457,           0.
     13,   46.8788872,   41.2220306,           0.
     14,    48.050457,    44.050457,           0.
     15,   46.8788872,   46.8788872,           0.
     16,    44.050457,    48.050457,           0.
     17,   46.8788872,   353.121124,           0.
     18,    48.050457,   355.949554,           0.
     19,   46.8788872,   358.777954,           0.
     20,    44.050457,   359.949554,           0.
** ... 1131 like lines cut
*Element, type=S3
 1,  164,  193,  118
 2, 1010,  139,  166
 3, 1004,  129,  163
 4,  229,  172,  175
 5, 1031,  125,  160
 6, 1001,  220,  120
 7,  175,  116,  145
 8,  142,  117,   16
 9,  143,  113,   32
10,  331,  257,  293
11,  166, 1039, 1030
12,  161,  254,  225
13, 1051, 1049,  157
14,  226,  222, 1017
15,  161,  225,  221
16,  914,  924, 1036
17,  303,  287,  259
18,  316, 1058,  345
19,  364,  338,  312
20, 1046,  321,  217
** ... 18 like lines cut
*Element, type=S4R
  39,  152,  136,    5,    4
  40,    3,  137,  152,    4
  41,    3,    2, 1000,  119
  42,  125,  162,   11,   10
  43,  161,  124,  162,  254
  44,    9, 1002,  126,   10
  45,   16,  117, 1002,    9
  46,  138,  192, 1007,   23
  47,  138,   23,   22, 1008
  48,   15, 1003,  142,   16
  49,  202,  259,  236,  178
  50,  171,  177,  115, 1007
  51,  268,  320,  282,  233
  52,  185,  235,  208,  173
  53,   14,   13, 1004,  128
  54,  144,    8,  114,  150
  55,  128,  159,  127,   14
  56,  129,   12,  124, 1005
  57, 1001,  120,    7,    6
  58,  121, 1000,    2,    1
** ... 1059 like lines cut
*Nset, nset=_PickedSet2, internal, generate
    1,  1151,     1
*Elset, elset=_PickedSet2, internal, generate
    1,  1117,     1
** Section: tole
*Shell Section, elset=_PickedSet2, material=acier
1., 5
*End Part
**  
**
** ASSEMBLY
**
*Assembly, name=Assembly
**  
*Instance, name=plaque-1, part=plaque
*End Instance
**  
*Node
      1,    44.050457,   355.949554,           0.
*Node
      2,    44.050457,    44.050457,           0.
*Node
      3,   355.949554,    44.050457,           0.
*Node
      4,   355.949554,   355.949554,           0.
*Nset, nset=_PickedSet9, internal
 1,
*Nset, nset=_PickedSet11, internal
 2,
*Nset, nset=_PickedSet13, internal
 3,
*Nset, nset=_PickedSet15, internal
 4,
*Nset, nset=_PickedSet16, internal, generate
 1,  4,  1
*Elset, elset=__PickedSurf8_E2, internal, instance=plaque-1
  47, 133, 136, 146, 166
*Elset, elset=__PickedSurf8_E3, internal, instance=plaque-1
 66,
*Elset, elset=__PickedSurf8_E1, internal, instance=plaque-1
 144,
*Elset, elset=__PickedSurf8_E4, internal, instance=plaque-1
 145,
*Surface, type=ELEMENT, name=_PickedSurf8, internal
__PickedSurf8_E2, E2
__PickedSurf8_E3, E3
__PickedSurf8_E4, E4
__PickedSurf8_E1, E1
*Elset, elset=__PickedSurf10_E3, internal, instance=plaque-1
 42,
*Elset, elset=__PickedSurf10_E4, internal, instance=plaque-1
  44,  45,  48, 149
*Elset, elset=__PickedSurf10_E1, internal, instance=plaque-1
  53, 151
*Elset, elset=__PickedSurf10_E2, internal, instance=plaque-1
 147,
*Surface, type=ELEMENT, name=_PickedSurf10, internal
__PickedSurf10_E3, E3
__PickedSurf10_E4, E4
__PickedSurf10_E2, E2
__PickedSurf10_E1, E1
*Elset, elset=__PickedSurf12_E3, internal, instance=plaque-1
 39, 57, 58
*Elset, elset=__PickedSurf12_E4, internal, instance=plaque-1
  40, 171
*Elset, elset=__PickedSurf12_E1, internal, instance=plaque-1
  41, 139, 143
*Surface, type=ELEMENT, name=_PickedSurf12, internal
__PickedSurf12_E3, E3
__PickedSurf12_E4, E4
__PickedSurf12_E1, E1
*Elset, elset=__PickedSurf14_E2, internal, instance=plaque-1
  60,  76, 135
*Elset, elset=__PickedSurf14_E4, internal, instance=plaque-1
 74, 75
*Elset, elset=__PickedSurf14_E1, internal, instance=plaque-1, generate
 156,  160,    2
*Surface, type=ELEMENT, name=_PickedSurf14, internal
__PickedSurf14_E2, E2
__PickedSurf14_E4, E4
__PickedSurf14_E1, E1
** Constraint: Constraint-1
*Coupling, constraint name=Constraint-1, ref node=_PickedSet9, surface=_PickedSurf8
*Kinematic
** Constraint: Constraint-2
*Coupling, constraint name=Constraint-2, ref node=_PickedSet11, surface=_PickedSurf10
*Kinematic
** Constraint: Constraint-3
*Coupling, constraint name=Constraint-3, ref node=_PickedSet13, surface=_PickedSurf12
*Kinematic
** Constraint: Constraint-4
*Coupling, constraint name=Constraint-4, ref node=_PickedSet15, surface=_PickedSurf14
*Kinematic
*End Assembly
** 
** MATERIALS
** 
*Material, name=acier
*Density
 7.86e-09,
*Elastic
210000., 0.26
** ----------------------------------------------------------------
** 
** STEP: analyse_modale
** 
*Step, name=analyse_modale, nlgeom=NO, perturbation
*Frequency, eigensolver=Lanczos, sim, acoustic coupling=on, normalization=mass
, , 500., , , 
** 
** BOUNDARY CONDITIONS
** 
** Name: blocage Type: Symmetry/Antisymmetry/Encastre
*Boundary
_PickedSet16, ENCASTRE
** 
** OUTPUT REQUESTS
** 
*Restart, write, frequency=0
** 
** FIELD OUTPUT: F-Output-1
** 
*Output, field
*Node Output, variable=PRESELECT
** 
** HISTORY OUTPUT: H-Output-1
** 
*Output, history
*Energy Output, variable=ALL
*End Step
