*Heading
** Job name: vibration Model name: Model-1
** Generated by: Abaqus/CAE 2025
*Preprint, echo=NO, model=NO, history=NO, contact=NO
**
** PARTS
**
*Part, name=plaque
*Node
      1,   377.767242,   22.2327499,           0.
      2,   376.595673,   19.4043217,           0.
      3,   377.767242,   16.5758953,           0.
      4,   380.595673,   15.4043226,           0.
      5,   383.424103,   16.5758953,           0.
      6,   384.595673,   19.4043217,           0.
      7,   383.424103,   22.2327499,           0.
      8,   380.595673,   23.4043217,           0.
      9,   16.5758953,   22.2327499,           0.
     10,   15.4043226,   19.4043217,           0.
     11,   16.5758953,   16.5758953,           0.
     12,   19.4043217,   15.4043226,           0.
     13,   22.2327499,   16.5758953,           0.
     14,   23.4043217,   19.4043217,           0.
     15,   22.2327499,   22.2327499,           0.
     16,   19.4043217,   23.4043217,           0.
     17,   22.2327499,   377.767242,           0.
     18,   23.4043217,   380.595673,           0.
     19,   22.2327499,   383.424103,           0.
     20,   19.4043217,   384.595673,           0.
** ... 689 like lines cut
*Element, type=S3
 1,   9, 149,  10
 2,  19, 145,  20
 3, 136, 113,  31
 4, 112, 151, 635
 5, 633, 112, 138
 6, 150,  13,  12
 7, 644, 125, 625
 8, 112, 633, 151
 9, 664, 639,  74
10, 152, 667,  38
11, 149, 655, 120
12,  34, 655,  94
13,  13, 150, 121
14, 168, 158,  73
15, 166,  55,  54
16, 199, 143, 169
17, 177, 659, 197
18, 377, 417, 366
19, 676, 674, 427
20, 490, 440, 452
** ... 34 like lines cut
*Element, type=S4R
 55,   6,   5, 618, 119
 56, 119, 141, 116,   6
 57, 147,   4, 127, 619
 58, 127,   4,   3, 616
 59, 152, 619, 127, 662
 60, 654,  12,  11, 120
 61, 165, 149,   9, 114
 62, 634,  23,  22, 129
 63, 629, 647, 621, 188
 64, 271, 207, 206, 290
 65, 666, 194, 200, 248
 66,  13, 121, 162,  14
 67, 134,   8,   7, 615
 68, 614, 137,   1,   8
 69, 215, 214, 268, 272
 70, 365, 195, 258, 369
 71, 136, 122, 650, 176
 72, 142,  28, 124, 628
 73,  75, 145, 155,  76
 74, 145,  19, 128, 155
** ... 609 like lines cut
*Nset, nset=_PickedSet2, internal, generate
   1,  709,    1
*Elset, elset=_PickedSet2, internal, generate
   1,  683,    1
** Section: tole
*Shell Section, elset=_PickedSet2, material=acier
1., 5
*End Part
**  
**
** ASSEMBLY
**
*Assembly, name=Assembly
**  
*Instance, name=plaque-1, part=plaque
*End Instance
**  
*Node
      1,   19.4043217,   380.595673,           0.
*Node
      2,   19.4043217,   19.4043217,           0.
*Node
      3,   380.595673,   19.4043217,           0.
*Node
      4,   380.595673,   380.595673,           0.
*Nset, nset=_PickedSet9, internal
 1,
*Nset, nset=_PickedSet11, internal
 2,
*Nset, nset=_PickedSet13, internal
 3,
*Nset, nset=_PickedSet15, internal
 4,
*Nset, nset=_PickedSet16, internal, generate
 1,  4,  1
*Elset, elset=__PickedSurf8_E3, internal, instance=plaque-1
 2,
*Elset, elset=__PickedSurf8_E2, internal, instance=plaque-1
  62,  76, 115, 149
*Elset, elset=__PickedSurf8_E4, internal, instance=plaque-1
 117, 163
*Elset, elset=__PickedSurf8_E1, internal, instance=plaque-1
 167,
*Surface, type=ELEMENT, name=_PickedSurf8, internal
__PickedSurf8_E3, E3
__PickedSurf8_E2, E2
__PickedSurf8_E4, E4
__PickedSurf8_E1, E1
*Elset, elset=__PickedSurf10_E3, internal, instance=plaque-1
 1,
*Elset, elset=__PickedSurf10_E2, internal, instance=plaque-1
   6,  29,  60, 127, 143, 144
*Elset, elset=__PickedSurf10_E4, internal, instance=plaque-1
 66,
*Surface, type=ELEMENT, name=_PickedSurf10, internal
__PickedSurf10_E3, E3
__PickedSurf10_E2, E2
__PickedSurf10_E4, E4
*Elset, elset=__PickedSurf12_E1, internal, instance=plaque-1
 55,
*Elset, elset=__PickedSurf12_E2, internal, instance=plaque-1
  58,  67, 146, 162
*Elset, elset=__PickedSurf12_E3, internal, instance=plaque-1
  68,  84, 145
*Surface, type=ELEMENT, name=_PickedSurf12, internal
__PickedSurf12_E1, E1
__PickedSurf12_E2, E2
__PickedSurf12_E3, E3
*Elset, elset=__PickedSurf14_E2, internal, instance=plaque-1
  80, 102, 154, 156, 159
*Elset, elset=__PickedSurf14_E3, internal, instance=plaque-1
 82,
*Elset, elset=__PickedSurf14_E4, internal, instance=plaque-1
 142,
*Elset, elset=__PickedSurf14_E1, internal, instance=plaque-1
 161,
*Surface, type=ELEMENT, name=_PickedSurf14, internal
__PickedSurf14_E2, E2
__PickedSurf14_E3, E3
__PickedSurf14_E4, E4
__PickedSurf14_E1, E1
** Constraint: Constraint-1
*Coupling, constraint name=Constraint-1, ref node=_PickedSet9, surface=_PickedSurf8
*Kinematic
** Constraint: Constraint-2
*Coupling, constraint name=Constraint-2, ref node=_PickedSet11, surface=_PickedSurf10
*Kinematic
** Constraint: Constraint-3
*Coupling, constraint name=Constraint-3, ref node=_PickedSet13, surface=_PickedSurf12
*Kinematic
** Constraint: Constraint-4
*Coupling, constraint name=Constraint-4, ref node=_PickedSet15, surface=_PickedSurf14
*Kinematic
*End Assembly
** 
** MATERIALS
** 
*Material, name=acier
*Density
 7.86e-09,
*Elastic
210000., 0.26
** ----------------------------------------------------------------
** 
** STEP: analyse_modale
** 
*Step, name=analyse_modale, nlgeom=NO, perturbation
*Frequency, eigensolver=Lanczos, sim, acoustic coupling=on, normalization=mass
, , 500., , , 
** 
** BOUNDARY CONDITIONS
** 
** Name: blocage Type: Symmetry/Antisymmetry/Encastre
*Boundary
_PickedSet16, ENCASTRE
** 
** OUTPUT REQUESTS
** 
*Restart, write, frequency=0
** 
** FIELD OUTPUT: F-Output-1
** 
*Output, field
*Node Output, variable=PRESELECT
** 
** HISTORY OUTPUT: H-Output-1
** 
*Output, history
*Energy Output, variable=ALL
*End Step
