*Heading
** Job name: vibration Model name: Model-1
** Generated by: Abaqus/CAE 2025
*Preprint, echo=NO, model=NO, history=NO, contact=NO
**
** PARTS
**
*Part, name=plaque
*Node
      1,   389.328491,   10.6715059,           0.
      2,   388.156921,   7.84307909,           0.
      3,   389.328491,   5.01465178,           0.
      4,   392.156921,   3.84307885,           0.
      5,   394.985352,   5.01465178,           0.
      6,   396.156921,   7.84307909,           0.
      7,   394.985352,   10.6715059,           0.
      8,   392.156921,   11.8430786,           0.
      9,   5.01465178,   10.6715059,           0.
     10,   3.84307885,   7.84307909,           0.
     11,   5.01465178,   5.01465178,           0.
     12,   7.84307909,   3.84307885,           0.
     13,   10.6715059,   5.01465178,           0.
     14,   11.8430786,   7.84307909,           0.
     15,   10.6715059,   10.6715059,           0.
     16,   7.84307909,   11.8430786,           0.
     17,   10.6715059,   389.328491,           0.
     18,   11.8430786,   392.156921,           0.
     19,   10.6715059,   394.985352,           0.
     20,   7.84307909,   396.156921,           0.
** ... 626 like lines cut
*Element, type=S3
 1, 552,   6,  33
 2, 550,  33,   4
 3, 120, 114, 187
 4, 605, 557,  12
 5, 562,  19,  18
 6, 119, 122,  31
 7,  16, 555,   9
 8, 563, 562,  75
 9,  12, 557,  13
10,  29, 118,  30
11,  24, 184,  17
12, 120, 553,  16
13,  32, 188, 113
14, 119, 124, 122
15, 178, 128,  92
16, 565,  23,  22
17, 176, 576, 256
18, 176, 256, 579
19, 307, 244, 241
20, 565,  22,  36
** ... 60 like lines cut
*Element, type=S4R
 81,   8,   7, 551, 126
 82, 117,  13, 557, 251
 83, 553, 556, 555,  16
 84,  24,  23, 559, 186
 85, 560, 556, 553, 577
 86,  51,  50, 144, 193
 87,  39,  38, 182, 132
 88, 185, 183, 114,  15
 89, 585, 554, 117, 251
 90,   7,   6, 552, 551
 91,   2, 115, 586, 116
 92, 154, 153, 195, 198
 93,  57, 147, 180,  58
 94,  28, 567, 566,  29
 95, 196, 173, 172, 201
 96,  30, 118, 119,  31
 97, 566, 568, 118,  29
 98,  25, 564, 572,  26
 99,  31, 122, 188,  32
100,  73, 130, 569,  74
** ... 533 like lines cut
*Nset, nset=_PickedSet2, internal, generate
   1,  646,    1
*Elset, elset=_PickedSet2, internal, generate
   1,  633,    1
** Section: tole
*Shell Section, elset=_PickedSet2, material=acier
1., 5
*End Part
**  
**
** ASSEMBLY
**
*Assembly, name=Assembly
**  
*Instance, name=plaque-1, part=plaque
*End Instance
**  
*Node
      1,   7.84307909,   392.156921,           0.
*Node
      2,   7.84307909,   7.84307909,           0.
*Node
      3,   392.156921,   7.84307909,           0.
*Node
      4,   392.156921,   392.156921,           0.
*Nset, nset=_PickedSet9, internal
 1,
*Nset, nset=_PickedSet11, internal
 2,
*Nset, nset=_PickedSet13, internal
 3,
*Nset, nset=_PickedSet15, internal
 4,
*Nset, nset=_PickedSet16, internal, generate
 1,  4,  1
*Elset, elset=__PickedSurf8_E2, internal, instance=plaque-1
  5, 16, 44
*Elset, elset=__PickedSurf8_E3, internal, instance=plaque-1
  11,  41,  42, 132
*Elset, elset=__PickedSurf8_E1, internal, instance=plaque-1
 84,
*Surface, type=ELEMENT, name=_PickedSurf8, internal
__PickedSurf8_E2, E2
__PickedSurf8_E3, E3
__PickedSurf8_E1, E1
*Elset, elset=__PickedSurf10_E3, internal, instance=plaque-1
   7,   9,  62, 164
*Elset, elset=__PickedSurf10_E2, internal, instance=plaque-1
  52, 235, 599, 612
*Surface, type=ELEMENT, name=_PickedSurf10, internal
__PickedSurf10_E3, E3
__PickedSurf10_E2, E2
*Elset, elset=__PickedSurf12_E2, internal, instance=plaque-1
 28,
*Elset, elset=__PickedSurf12_E3, internal, instance=plaque-1
  54, 169
*Elset, elset=__PickedSurf12_E1, internal, instance=plaque-1
  81,  90, 101, 166
*Elset, elset=__PickedSurf12_E4, internal, instance=plaque-1
 102,
*Surface, type=ELEMENT, name=_PickedSurf12, internal
__PickedSurf12_E2, E2
__PickedSurf12_E3, E3
__PickedSurf12_E4, E4
__PickedSurf12_E1, E1
*Elset, elset=__PickedSurf14_E3, internal, instance=plaque-1
  10,  56, 607
*Elset, elset=__PickedSurf14_E2, internal, instance=plaque-1
 36,
*Elset, elset=__PickedSurf14_E4, internal, instance=plaque-1
 94, 96, 98, 99
*Surface, type=ELEMENT, name=_PickedSurf14, internal
__PickedSurf14_E3, E3
__PickedSurf14_E2, E2
__PickedSurf14_E4, E4
** Constraint: Constraint-1
*Coupling, constraint name=Constraint-1, ref node=_PickedSet9, surface=_PickedSurf8
*Kinematic
** Constraint: Constraint-2
*Coupling, constraint name=Constraint-2, ref node=_PickedSet11, surface=_PickedSurf10
*Kinematic
** Constraint: Constraint-3
*Coupling, constraint name=Constraint-3, ref node=_PickedSet13, surface=_PickedSurf12
*Kinematic
** Constraint: Constraint-4
*Coupling, constraint name=Constraint-4, ref node=_PickedSet15, surface=_PickedSurf14
*Kinematic
*End Assembly
** 
** MATERIALS
** 
*Material, name=acier
*Density
 7.86e-09,
*Elastic
210000., 0.26
** ----------------------------------------------------------------
** 
** STEP: analyse_modale
** 
*Step, name=analyse_modale, nlgeom=NO, perturbation
*Frequency, eigensolver=Lanczos, sim, acoustic coupling=on, normalization=mass
, , 500., , , 
** 
** BOUNDARY CONDITIONS
** 
** Name: blocage Type: Symmetry/Antisymmetry/Encastre
*Boundary
_PickedSet16, ENCASTRE
** 
** OUTPUT REQUESTS
** 
*Restart, write, frequency=0
** 
** FIELD OUTPUT: F-Output-1
** 
*Output, field
*Node Output, variable=PRESELECT
** 
** HISTORY OUTPUT: H-Output-1
** 
*Output, history
*Energy Output, variable=ALL
*End Step
