*Heading
** Job name: vibration Model name: Model-1
** Generated by: Abaqus/CAE 2025
*Preprint, echo=NO, model=NO, history=NO, contact=NO
**
** PARTS
**
*Part, name=plaque
*Node
      1,   364.062897,   35.9371109,           0.
      2,   362.891327,   33.1086807,           0.
      3,   364.062897,   30.2802544,           0.
      4,   366.891327,   29.1086826,           0.
      5,   369.719757,   30.2802544,           0.
      6,   370.891327,   33.1086807,           0.
      7,   369.719757,   35.9371109,           0.
      8,   366.891327,   37.1086807,           0.
      9,   30.2802544,   35.9371109,           0.
     10,   29.1086826,   33.1086807,           0.
     11,   30.2802544,   30.2802544,           0.
     12,   33.1086807,   29.1086826,           0.
     13,   35.9371109,   30.2802544,           0.
     14,   37.1086807,   33.1086807,           0.
     15,   35.9371109,   35.9371109,           0.
     16,   33.1086807,   37.1086807,           0.
     17,   35.9371109,   364.062897,           0.
     18,   37.1086807,   366.891327,           0.
     19,   35.9371109,   369.719757,           0.
     20,   33.1086807,   370.891327,           0.
** ... 714 like lines cut
*Element, type=S3
 1, 680, 148, 675
 2, 658, 176, 120
 3, 121,  29,  28
 4, 156,  24, 114
 5,  27, 165,  28
 6, 147,  13, 119
 7, 125, 141, 124
 8, 123, 165,  27
 9, 657, 656, 135
10, 128,  22,  21
11, 671, 682, 214
12, 130, 115,  16
13, 164, 150, 182
14, 168, 164, 182
15,  28, 165, 121
16, 121, 658,  29
17, 655, 190, 151
18, 203, 174, 191
19, 165, 140, 121
20, 190, 660, 151
** ... 36 like lines cut
*Element, type=S4R
 57, 117,   3,   2, 651
 58, 188, 147, 189,  54
 59,  11,  10, 145, 166
 60, 115, 118,   9,  16
 61, 127, 153,  23,  22
 62,  15, 652, 130,  16
 63, 229, 152, 669, 178
 64, 177, 114, 153, 169
 65, 113, 137,   8,   7
 66, 157, 652, 144, 667
 67, 144,  14,  13, 147
 68, 166, 146,  12,  11
 69, 126, 138,   6,   5
 70, 328, 362, 357, 316
 71, 658, 121, 140, 148
 72,  18, 149, 159,  19
 73, 159, 139,  20,  19
 74, 127,  22, 128, 654
 75,  21, 655, 151, 128
 76,  17, 116, 129,  18
** ... 633 like lines cut
*Nset, nset=_PickedSet2, internal, generate
   1,  734,    1
*Elset, elset=_PickedSet2, internal, generate
   1,  709,    1
** Section: tole
*Shell Section, elset=_PickedSet2, material=acier
1., 5
*End Part
**  
**
** ASSEMBLY
**
*Assembly, name=Assembly
**  
*Instance, name=plaque-1, part=plaque
*End Instance
**  
*Node
      1,   33.1086807,   366.891327,           0.
*Node
      2,   33.1086807,   33.1086807,           0.
*Node
      3,   366.891327,   33.1086807,           0.
*Node
      4,   366.891327,   366.891327,           0.
*Nset, nset=_PickedSet9, internal
 1,
*Nset, nset=_PickedSet11, internal
 2,
*Nset, nset=_PickedSet13, internal
 3,
*Nset, nset=_PickedSet15, internal
 4,
*Nset, nset=_PickedSet16, internal, generate
 1,  4,  1
*Elset, elset=__PickedSurf8_E2, internal, instance=plaque-1
  10, 137, 139
*Elset, elset=__PickedSurf8_E3, internal, instance=plaque-1
  61,  73, 144
*Elset, elset=__PickedSurf8_E4, internal, instance=plaque-1
 72, 76
*Surface, type=ELEMENT, name=_PickedSurf8, internal
__PickedSurf8_E2, E2
__PickedSurf8_E3, E3
__PickedSurf8_E4, E4
*Elset, elset=__PickedSurf10_E1, internal, instance=plaque-1
  59, 147
*Elset, elset=__PickedSurf10_E3, internal, instance=plaque-1
  60,  68, 121
*Elset, elset=__PickedSurf10_E4, internal, instance=plaque-1
 62,
*Elset, elset=__PickedSurf10_E2, internal, instance=plaque-1
  67, 149
*Surface, type=ELEMENT, name=_PickedSurf10, internal
__PickedSurf10_E1, E1
__PickedSurf10_E3, E3
__PickedSurf10_E4, E4
__PickedSurf10_E2, E2
*Elset, elset=__PickedSurf12_E2, internal, instance=plaque-1
  57,  86, 140
*Elset, elset=__PickedSurf12_E3, internal, instance=plaque-1
 65, 69
*Elset, elset=__PickedSurf12_E4, internal, instance=plaque-1
  78, 135
*Elset, elset=__PickedSurf12_E1, internal, instance=plaque-1
 83,
*Surface, type=ELEMENT, name=_PickedSurf12, internal
__PickedSurf12_E2, E2
__PickedSurf12_E3, E3
__PickedSurf12_E4, E4
__PickedSurf12_E1, E1
*Elset, elset=__PickedSurf14_E2, internal, instance=plaque-1
 3,
*Elset, elset=__PickedSurf14_E3, internal, instance=plaque-1
  5, 79, 99
*Elset, elset=__PickedSurf14_E4, internal, instance=plaque-1
 81,
*Elset, elset=__PickedSurf14_E1, internal, instance=plaque-1
 134, 150, 153
*Surface, type=ELEMENT, name=_PickedSurf14, internal
__PickedSurf14_E2, E2
__PickedSurf14_E3, E3
__PickedSurf14_E4, E4
__PickedSurf14_E1, E1
** Constraint: Constraint-1
*Coupling, constraint name=Constraint-1, ref node=_PickedSet9, surface=_PickedSurf8
*Kinematic
** Constraint: Constraint-2
*Coupling, constraint name=Constraint-2, ref node=_PickedSet11, surface=_PickedSurf10
*Kinematic
** Constraint: Constraint-3
*Coupling, constraint name=Constraint-3, ref node=_PickedSet13, surface=_PickedSurf12
*Kinematic
** Constraint: Constraint-4
*Coupling, constraint name=Constraint-4, ref node=_PickedSet15, surface=_PickedSurf14
*Kinematic
*End Assembly
** 
** MATERIALS
** 
*Material, name=acier
*Density
 7.86e-09,
*Elastic
210000., 0.26
** ----------------------------------------------------------------
** 
** STEP: analyse_modale
** 
*Step, name=analyse_modale, nlgeom=NO, perturbation
*Frequency, eigensolver=Lanczos, sim, acoustic coupling=on, normalization=mass
, , 500., , , 
** 
** BOUNDARY CONDITIONS
** 
** Name: blocage Type: Symmetry/Antisymmetry/Encastre
*Boundary
_PickedSet16, ENCASTRE
** 
** OUTPUT REQUESTS
** 
*Restart, write, frequency=0
** 
** FIELD OUTPUT: F-Output-1
** 
*Output, field
*Node Output, variable=PRESELECT
** 
** HISTORY OUTPUT: H-Output-1
** 
*Output, history
*Energy Output, variable=ALL
*End Step
