*Heading
** Job name: vibration Model name: Model-1
** Generated by: Abaqus/CAE 2025
*Preprint, echo=NO, model=NO, history=NO, contact=NO
**
** PARTS
**
*Part, name=plaque
*Node
      1,   367.259674,   32.7403259,           0.
      2,   366.088104,   29.9118977,           0.
      3,   367.259674,   27.0834713,           0.
      4,   370.088104,   25.9118977,           0.
      5,   372.916534,   27.0834713,           0.
      6,   374.088104,   29.9118977,           0.
      7,   372.916534,   32.7403259,           0.
      8,   370.088104,   33.9118996,           0.
      9,   27.0834713,   32.7403259,           0.
     10,   25.9118977,   29.9118977,           0.
     11,   27.0834713,   27.0834713,           0.
     12,   29.9118977,   25.9118977,           0.
     13,   32.7403259,   27.0834713,           0.
     14,   33.9118996,   29.9118977,           0.
     15,   32.7403259,   32.7403259,           0.
     16,   29.9118977,   33.9118996,           0.
     17,   32.7403259,   367.259674,           0.
     18,   33.9118996,   370.088104,           0.
     19,   32.7403259,   372.916534,           0.
     20,   29.9118977,   374.088104,           0.
** ... 756 like lines cut
*Element, type=S3
 1, 659,   9, 130
 2, 696, 225, 234
 3, 118, 167, 136
 4, 667, 131, 173
 5, 146, 126, 174
 6, 670, 165, 137
 7, 155, 141,  19
 8, 118, 138, 167
 9, 218, 181, 185
10, 674, 181, 217
11, 653, 178, 157
12, 436, 339, 383
13, 722, 441, 344
14, 459, 407, 419
15, 736, 448, 487
16, 500, 469, 489
17, 717, 513, 474
18, 574, 562, 528
19, 563, 525, 530
20, 618, 763, 596
** ... 12 like lines cut
*Element, type=S4R
 33, 652, 168,  74,  73
 34,   5, 142, 115,   6
 35, 124, 142,   5,   4
 36, 116, 143,   3,   2
 37, 158, 117, 152, 177
 38,  11, 118, 136,  12
 39, 649, 130,   9,  16
 40,  15, 650, 127,  16
 41, 336, 695, 237, 704
 42, 208, 684, 203, 211
 43,   8, 113, 150,   1
 44,  14,  13, 137, 139
 45, 116,   2, 117, 158
 46,  44, 266, 305,  45
 47, 262,  60,  59, 236
 48, 151, 121, 153, 675
 49, 120, 144,  29,  28
 50, 155,  19,  18, 125
 51,  76,  75, 163, 661
 52,  21,  20, 163, 145
** ... 687 like lines cut
*Nset, nset=_PickedSet2, internal, generate
   1,  776,    1
*Elset, elset=_PickedSet2, internal, generate
   1,  739,    1
** Section: tole
*Shell Section, elset=_PickedSet2, material=acier
1., 5
*End Part
**  
**
** ASSEMBLY
**
*Assembly, name=Assembly
**  
*Instance, name=plaque-1, part=plaque
*End Instance
**  
*Node
      1,   29.9118977,   370.088104,           0.
*Node
      2,   29.9118977,   29.9118977,           0.
*Node
      3,   370.088104,   29.9118977,           0.
*Node
      4,   370.088104,   370.088104,           0.
*Nset, nset=_PickedSet9, internal
 1,
*Nset, nset=_PickedSet11, internal
 2,
*Nset, nset=_PickedSet13, internal
 3,
*Nset, nset=_PickedSet15, internal
 4,
*Nset, nset=_PickedSet16, internal, generate
 1,  4,  1
*Elset, elset=__PickedSurf8_E2, internal, instance=plaque-1
  50, 132, 133
*Elset, elset=__PickedSurf8_E1, internal, instance=plaque-1
  52, 120
*Elset, elset=__PickedSurf8_E4, internal, instance=plaque-1
  53, 115
*Elset, elset=__PickedSurf8_E3, internal, instance=plaque-1
 116,
*Surface, type=ELEMENT, name=_PickedSurf8, internal
__PickedSurf8_E2, E2
__PickedSurf8_E1, E1
__PickedSurf8_E4, E4
__PickedSurf8_E3, E3
*Elset, elset=__PickedSurf10_E4, internal, instance=plaque-1
  38,  40, 121, 139
*Elset, elset=__PickedSurf10_E3, internal, instance=plaque-1
 39,
*Elset, elset=__PickedSurf10_E1, internal, instance=plaque-1
  44, 122
*Elset, elset=__PickedSurf10_E2, internal, instance=plaque-1
 123,
*Surface, type=ELEMENT, name=_PickedSurf10, internal
__PickedSurf10_E4, E4
__PickedSurf10_E3, E3
__PickedSurf10_E2, E2
__PickedSurf10_E1, E1
*Elset, elset=__PickedSurf12_E4, internal, instance=plaque-1
 34, 43, 63, 86
*Elset, elset=__PickedSurf12_E3, internal, instance=plaque-1
 35, 36
*Elset, elset=__PickedSurf12_E1, internal, instance=plaque-1
 117,
*Elset, elset=__PickedSurf12_E2, internal, instance=plaque-1
 129,
*Surface, type=ELEMENT, name=_PickedSurf12, internal
__PickedSurf12_E4, E4
__PickedSurf12_E3, E3
__PickedSurf12_E2, E2
__PickedSurf12_E1, E1
*Elset, elset=__PickedSurf14_E3, internal, instance=plaque-1
 49, 57, 58, 73
*Elset, elset=__PickedSurf14_E2, internal, instance=plaque-1
  56, 128
*Elset, elset=__PickedSurf14_E4, internal, instance=plaque-1
  75, 100
*Surface, type=ELEMENT, name=_PickedSurf14, internal
__PickedSurf14_E3, E3
__PickedSurf14_E2, E2
__PickedSurf14_E4, E4
** Constraint: Constraint-1
*Coupling, constraint name=Constraint-1, ref node=_PickedSet9, surface=_PickedSurf8
*Kinematic
** Constraint: Constraint-2
*Coupling, constraint name=Constraint-2, ref node=_PickedSet11, surface=_PickedSurf10
*Kinematic
** Constraint: Constraint-3
*Coupling, constraint name=Constraint-3, ref node=_PickedSet13, surface=_PickedSurf12
*Kinematic
** Constraint: Constraint-4
*Coupling, constraint name=Constraint-4, ref node=_PickedSet15, surface=_PickedSurf14
*Kinematic
*End Assembly
** 
** MATERIALS
** 
*Material, name=acier
*Density
 7.86e-09,
*Elastic
210000., 0.26
** ----------------------------------------------------------------
** 
** STEP: analyse_modale
** 
*Step, name=analyse_modale, nlgeom=NO, perturbation
*Frequency, eigensolver=Lanczos, sim, acoustic coupling=on, normalization=mass
, , 500., , , 
** 
** BOUNDARY CONDITIONS
** 
** Name: blocage Type: Symmetry/Antisymmetry/Encastre
*Boundary
_PickedSet16, ENCASTRE
** 
** OUTPUT REQUESTS
** 
*Restart, write, frequency=0
** 
** FIELD OUTPUT: F-Output-1
** 
*Output, field
*Node Output, variable=PRESELECT
** 
** HISTORY OUTPUT: H-Output-1
** 
*Output, history
*Energy Output, variable=ALL
*End Step
