*Heading
** Job name: vibration Model name: Model-1
** Generated by: Abaqus/CAE 2025
*Preprint, echo=NO, model=NO, history=NO, contact=NO
**
** PARTS
**
*Part, name=plaque
*Node
      1,   378.576904,   21.4230881,           0.
      2,   377.405334,   18.5946617,           0.
      3,   378.576904,   15.7662344,           0.
      4,   381.405334,   14.5946617,           0.
      5,   384.233765,   15.7662344,           0.
      6,   385.405334,   18.5946617,           0.
      7,   384.233765,   21.4230881,           0.
      8,   381.405334,   22.5946617,           0.
      9,   15.7662344,   21.4230881,           0.
     10,   14.5946617,   18.5946617,           0.
     11,   15.7662344,   15.7662344,           0.
     12,   18.5946617,   14.5946617,           0.
     13,   21.4230881,   15.7662344,           0.
     14,   22.5946617,   18.5946617,           0.
     15,   21.4230881,   21.4230881,           0.
     16,   18.5946617,   22.5946617,           0.
     17,   21.4230881,   378.576904,           0.
     18,   22.5946617,   381.405334,           0.
     19,   21.4230881,   384.233765,           0.
     20,   18.5946617,   385.405334,           0.
** ... 662 like lines cut
*Element, type=S3
 1, 644, 647, 256
 2,  27, 140,  28
 3, 139,  75, 638
 4, 176, 122, 140
 5, 148,  11,  10
 6, 183, 148, 118
 7, 145,  23,  22
 8, 608, 172, 181
 9, 145, 135, 609
10, 185, 137,  74
11, 622,  93, 151
12, 646, 153, 639
13, 155,  38,  37
14, 619, 640, 158
15, 640, 180, 163
16, 625, 185,  74
17, 155, 613,  38
18, 653, 369, 260
19, 661, 403, 473
20, 411, 454, 459
** ... 22 like lines cut
*Element, type=S4R
 43, 154, 137,   6,   5
 44, 126, 138,   4,   3
 45, 138, 126, 155,  37
 46, 115, 608, 142,   2
 47,  12,  11, 119, 149
 48, 147, 119,  11, 148
 49, 118, 148,  10,   9
 50, 111, 629, 630, 112
 51, 130,  16,  15, 136
 52, 162, 189, 627, 157
 53, 203, 204,  48,  47
 54, 136,  15, 632, 631
 55,   8,   7, 628, 113
 56, 120,  14,  13, 117
 57, 185, 625, 626, 618
 58, 113, 133,   1,   8
 59, 211, 210, 259, 263
 60, 275, 266, 243, 206
 61, 144, 164, 132, 123
 62,  92, 615, 176,  93
** ... 588 like lines cut
*Nset, nset=_PickedSet2, internal, generate
   1,  682,    1
*Elset, elset=_PickedSet2, internal, generate
   1,  650,    1
** Section: tole
*Shell Section, elset=_PickedSet2, material=acier
1., 5
*End Part
**  
**
** ASSEMBLY
**
*Assembly, name=Assembly
**  
*Instance, name=plaque-1, part=plaque
*End Instance
**  
*Node
      1,   18.5946617,   381.405334,           0.
*Node
      2,   18.5946617,   18.5946617,           0.
*Node
      3,   381.405334,   18.5946617,           0.
*Node
      4,   381.405334,   381.405334,           0.
*Nset, nset=_PickedSet9, internal
 1,
*Nset, nset=_PickedSet11, internal
 2,
*Nset, nset=_PickedSet13, internal
 3,
*Nset, nset=_PickedSet15, internal
 4,
*Nset, nset=_PickedSet16, internal, generate
 1,  4,  1
*Elset, elset=__PickedSurf8_E2, internal, instance=plaque-1
  7, 66, 68
*Elset, elset=__PickedSurf8_E4, internal, instance=plaque-1
  64, 103, 105, 137, 155
*Surface, type=ELEMENT, name=_PickedSurf8, internal
__PickedSurf8_E2, E2
__PickedSurf8_E4, E4
*Elset, elset=__PickedSurf10_E2, internal, instance=plaque-1
   5,  51,  56, 140
*Elset, elset=__PickedSurf10_E1, internal, instance=plaque-1
 47,
*Elset, elset=__PickedSurf10_E3, internal, instance=plaque-1
  49, 116
*Elset, elset=__PickedSurf10_E4, internal, instance=plaque-1
 134,
*Surface, type=ELEMENT, name=_PickedSurf10, internal
__PickedSurf10_E2, E2
__PickedSurf10_E1, E1
__PickedSurf10_E4, E4
__PickedSurf10_E3, E3
*Elset, elset=__PickedSurf12_E3, internal, instance=plaque-1
 43, 44, 58, 76
*Elset, elset=__PickedSurf12_E1, internal, instance=plaque-1
  55, 150
*Elset, elset=__PickedSurf12_E4, internal, instance=plaque-1
 75,
*Elset, elset=__PickedSurf12_E2, internal, instance=plaque-1
 135,
*Surface, type=ELEMENT, name=_PickedSurf12, internal
__PickedSurf12_E3, E3
__PickedSurf12_E1, E1
__PickedSurf12_E4, E4
__PickedSurf12_E2, E2
*Elset, elset=__PickedSurf14_E3, internal, instance=plaque-1
  2, 69, 70, 72
*Elset, elset=__PickedSurf14_E2, internal, instance=plaque-1
 133, 144, 148, 149
*Surface, type=ELEMENT, name=_PickedSurf14, internal
__PickedSurf14_E3, E3
__PickedSurf14_E2, E2
** Constraint: Constraint-1
*Coupling, constraint name=Constraint-1, ref node=_PickedSet9, surface=_PickedSurf8
*Kinematic
** Constraint: Constraint-2
*Coupling, constraint name=Constraint-2, ref node=_PickedSet11, surface=_PickedSurf10
*Kinematic
** Constraint: Constraint-3
*Coupling, constraint name=Constraint-3, ref node=_PickedSet13, surface=_PickedSurf12
*Kinematic
** Constraint: Constraint-4
*Coupling, constraint name=Constraint-4, ref node=_PickedSet15, surface=_PickedSurf14
*Kinematic
*End Assembly
** 
** MATERIALS
** 
*Material, name=acier
*Density
 7.86e-09,
*Elastic
210000., 0.26
** ----------------------------------------------------------------
** 
** STEP: analyse_modale
** 
*Step, name=analyse_modale, nlgeom=NO, perturbation
*Frequency, eigensolver=Lanczos, sim, acoustic coupling=on, normalization=mass
, , 500., , , 
** 
** BOUNDARY CONDITIONS
** 
** Name: blocage Type: Symmetry/Antisymmetry/Encastre
*Boundary
_PickedSet16, ENCASTRE
** 
** OUTPUT REQUESTS
** 
*Restart, write, frequency=0
** 
** FIELD OUTPUT: F-Output-1
** 
*Output, field
*Node Output, variable=PRESELECT
** 
** HISTORY OUTPUT: H-Output-1
** 
*Output, history
*Energy Output, variable=ALL
*End Step
