*Heading
** Job name: vibration Model name: Model-1
** Generated by: Abaqus/CAE 2025
*Preprint, echo=NO, model=NO, history=NO, contact=NO
**
** PARTS
**
*Part, name=plaque
*Node
      1,   348.295868,   51.7041397,           0.
      2,   347.124298,   48.8757133,           0.
      3,   348.295868,   46.0472832,           0.
      4,   351.124298,   44.8757133,           0.
      5,   353.952728,   46.0472832,           0.
      6,   355.124298,   48.8757133,           0.
      7,   353.952728,   51.7041397,           0.
      8,   351.124298,   52.8757133,           0.
      9,   46.0472832,   51.7041397,           0.
     10,   44.8757133,   48.8757133,           0.
     11,   46.0472832,   46.0472832,           0.
     12,   48.8757133,   44.8757133,           0.
     13,   51.7041397,   46.0472832,           0.
     14,   52.8757133,   48.8757133,           0.
     15,   51.7041397,   51.7041397,           0.
     16,   48.8757133,   52.8757133,           0.
     17,   51.7041397,   348.295868,           0.
     18,   52.8757133,   351.124298,           0.
     19,   51.7041397,   353.952728,           0.
     20,   48.8757133,   355.124298,           0.
** ... 1211 like lines cut
*Element, type=S3
 1,  186,  113,  144
 2,  193,  124,  168
 3,  217, 1109,  287
 4,  246,  160,  193
 5,  117,  212,  169
 6, 1105,  260,  215
 7,  273,  245,  230
 8, 1103,  248,  179
 9,  292,  328,  231
10,  310,  208,  236
11,  271,  198,  968
12,  341,  303,  323
13,  359,  348,  334
14, 1161,  385,  358
15,  684,  616,  608
16,  971, 1203,  678
17,  806,  703,  764
18,  803,  749,  499
19, 1224,  891,  825
20,  889,  849,  875
** ... 24 like lines cut
*Element, type=S4R
  45,  155,  191,  225, 1120
  46,  162,  191,  118, 1081
  47,  134,  162, 1081,    5
  48, 1084,    3,    2,  120
  49,  197,  224,  161, 1086
  50,  160, 1088,  124,  193
  51,  117,  169,   16,   15
  52,  136,  201, 1091,   23
  53,  115,   24,  116,  143
  54,  286,  247,  267,  303
  55,    8, 1079,  142,    1
  56,  117,   15,  125,  147
  57,  338,  354,  347,  305
  58,  126,  159,   14,   13
  59, 1086,   12,  123,  197
  60,  119,    6,  118, 1082
  61,  319,  337,  302,  278
  62,   29,  129, 1098,   30
  63,  151,  128, 1098,  184
  64,  129, 1123,  184, 1098
** ... 1136 like lines cut
*Nset, nset=_PickedSet2, internal, generate
    1,  1231,     1
*Elset, elset=_PickedSet2, internal, generate
    1,  1200,     1
** Section: tole
*Shell Section, elset=_PickedSet2, material=acier
1., 5
*End Part
**  
**
** ASSEMBLY
**
*Assembly, name=Assembly
**  
*Instance, name=plaque-1, part=plaque
*End Instance
**  
*Node
      1,   48.8757133,   351.124298,           0.
*Node
      2,   48.8757133,   48.8757133,           0.
*Node
      3,   351.124298,   48.8757133,           0.
*Node
      4,   351.124298,   351.124298,           0.
*Nset, nset=_PickedSet9, internal
 1,
*Nset, nset=_PickedSet11, internal
 2,
*Nset, nset=_PickedSet13, internal
 3,
*Nset, nset=_PickedSet15, internal
 4,
*Nset, nset=_PickedSet16, internal, generate
 1,  4,  1
*Elset, elset=__PickedSurf8_E4, internal, instance=plaque-1
  68, 143, 150
*Elset, elset=__PickedSurf8_E2, internal, instance=plaque-1
  73, 151
*Elset, elset=__PickedSurf8_E3, internal, instance=plaque-1
 138,
*Elset, elset=__PickedSurf8_E1, internal, instance=plaque-1
 142, 172
*Surface, type=ELEMENT, name=_PickedSurf8, internal
__PickedSurf8_E4, E4
__PickedSurf8_E2, E2
__PickedSurf8_E3, E3
__PickedSurf8_E1, E1
*Elset, elset=__PickedSurf10_E3, internal, instance=plaque-1
 51, 58
*Elset, elset=__PickedSurf10_E4, internal, instance=plaque-1
  95, 152, 153
*Elset, elset=__PickedSurf10_E1, internal, instance=plaque-1
 154,
*Elset, elset=__PickedSurf10_E2, internal, instance=plaque-1
 155, 158
*Surface, type=ELEMENT, name=_PickedSurf10, internal
__PickedSurf10_E3, E3
__PickedSurf10_E4, E4
__PickedSurf10_E2, E2
__PickedSurf10_E1, E1
*Elset, elset=__PickedSurf12_E2, internal, instance=plaque-1
  48, 140, 144, 145, 147
*Elset, elset=__PickedSurf12_E4, internal, instance=plaque-1
  55,  82, 167
*Surface, type=ELEMENT, name=_PickedSurf12, internal
__PickedSurf12_E2, E2
__PickedSurf12_E4, E4
*Elset, elset=__PickedSurf14_E4, internal, instance=plaque-1
  62,  81, 161
*Elset, elset=__PickedSurf14_E2, internal, instance=plaque-1
  76, 162, 164
*Elset, elset=__PickedSurf14_E1, internal, instance=plaque-1
 80,
*Elset, elset=__PickedSurf14_E3, internal, instance=plaque-1
 100,
*Surface, type=ELEMENT, name=_PickedSurf14, internal
__PickedSurf14_E4, E4
__PickedSurf14_E2, E2
__PickedSurf14_E1, E1
__PickedSurf14_E3, E3
** Constraint: Constraint-1
*Coupling, constraint name=Constraint-1, ref node=_PickedSet9, surface=_PickedSurf8
*Kinematic
** Constraint: Constraint-2
*Coupling, constraint name=Constraint-2, ref node=_PickedSet11, surface=_PickedSurf10
*Kinematic
** Constraint: Constraint-3
*Coupling, constraint name=Constraint-3, ref node=_PickedSet13, surface=_PickedSurf12
*Kinematic
** Constraint: Constraint-4
*Coupling, constraint name=Constraint-4, ref node=_PickedSet15, surface=_PickedSurf14
*Kinematic
*End Assembly
** 
** MATERIALS
** 
*Material, name=acier
*Density
 7.86e-09,
*Elastic
210000., 0.26
** ----------------------------------------------------------------
** 
** STEP: analyse_modale
** 
*Step, name=analyse_modale, nlgeom=NO, perturbation
*Frequency, eigensolver=Lanczos, sim, acoustic coupling=on, normalization=mass
, , 500., , , 
** 
** BOUNDARY CONDITIONS
** 
** Name: blocage Type: Symmetry/Antisymmetry/Encastre
*Boundary
_PickedSet16, ENCASTRE
** 
** OUTPUT REQUESTS
** 
*Restart, write, frequency=0
** 
** FIELD OUTPUT: F-Output-1
** 
*Output, field
*Node Output, variable=PRESELECT
** 
** HISTORY OUTPUT: H-Output-1
** 
*Output, history
*Energy Output, variable=ALL
*End Step
