*Heading
** Job name: vibration Model name: Model-1
** Generated by: Abaqus/CAE 2025
*Preprint, echo=NO, model=NO, history=NO, contact=NO
**
** PARTS
**
*Part, name=plaque
*Node
      1,   355.652527,   44.3474731,           0.
      2,   354.480957,   41.5190468,           0.
      3,   355.652527,   38.6906204,           0.
      4,   358.480957,   37.5190468,           0.
      5,   361.309387,   38.6906204,           0.
      6,   362.480957,   41.5190468,           0.
      7,   361.309387,   44.3474731,           0.
      8,   358.480957,   45.5190468,           0.
      9,   38.6906204,   44.3474731,           0.
     10,   37.5190468,   41.5190468,           0.
     11,   38.6906204,   38.6906204,           0.
     12,   41.5190468,   37.5190468,           0.
     13,   44.3474731,   38.6906204,           0.
     14,   45.5190468,   41.5190468,           0.
     15,   44.3474731,   44.3474731,           0.
     16,   41.5190468,   45.5190468,           0.
     17,   44.3474731,   355.652527,           0.
     18,   45.5190468,   358.480957,           0.
     19,   44.3474731,   361.309387,           0.
     20,   41.5190468,   362.480957,           0.
** ... 971 like lines cut
*Element, type=S3
 1, 912, 910, 187
 2, 209, 236, 194
 3, 893, 254, 183
 4, 227, 174, 197
 5, 852, 123, 144
 6, 221, 192, 152
 7, 925, 898, 169
 8, 927, 327, 307
 9, 438, 193,  95
10, 478, 219, 443
11, 236, 222, 194
12, 872, 162, 216
13, 478, 218, 219
14, 401, 411, 373
15,  76, 180, 423
16,  95, 193, 437
17, 601, 548, 563
18, 645, 617, 553
19, 714, 600, 710
20, 809, 758, 787
** ... 14 like lines cut
*Element, type=S4R
 35, 155, 118, 163, 187
 36, 135,   3, 119, 167
 37, 881, 880, 239, 209
 38,  11,  10, 125, 857
 39, 856,   9,  16, 117
 40, 185, 148, 117, 146
 41, 863, 137, 149, 906
 42, 924, 210, 240, 235
 43, 858,  15, 127, 175
 44, 161, 224, 175, 127
 45, 115, 898, 181, 143
 46, 283, 267, 292, 319
 47, 226, 171, 202, 255
 48, 142,   8, 114, 147
 49, 161, 127, 859, 877
 50, 859,  14,  13, 128
 51, 118, 155, 894, 853
 52, 120, 851,   2,   1
 53, 946, 369, 388, 341
 54, 130, 868,  30,  29
** ... 901 like lines cut
*Nset, nset=_PickedSet2, internal, generate
   1,  991,    1
*Elset, elset=_PickedSet2, internal, generate
   1,  955,    1
** Section: tole
*Shell Section, elset=_PickedSet2, material=acier
1., 5
*End Part
**  
**
** ASSEMBLY
**
*Assembly, name=Assembly
**  
*Instance, name=plaque-1, part=plaque
*End Instance
**  
*Node
      1,   41.5190468,   358.480957,           0.
*Node
      2,   41.5190468,   41.5190468,           0.
*Node
      3,   358.480957,   41.5190468,           0.
*Node
      4,   358.480957,   358.480957,           0.
*Nset, nset=_PickedSet9, internal
 1,
*Nset, nset=_PickedSet11, internal
 2,
*Nset, nset=_PickedSet13, internal
 3,
*Nset, nset=_PickedSet15, internal
 4,
*Nset, nset=_PickedSet16, internal, generate
 1,  4,  1
*Elset, elset=__PickedSurf8_E2, internal, instance=plaque-1
  60, 139, 159
*Elset, elset=__PickedSurf8_E3, internal, instance=plaque-1
  62, 106
*Elset, elset=__PickedSurf8_E1, internal, instance=plaque-1, generate
 130,  132,    1
*Surface, type=ELEMENT, name=_PickedSurf8, internal
__PickedSurf8_E2, E2
__PickedSurf8_E3, E3
__PickedSurf8_E1, E1
*Elset, elset=__PickedSurf10_E1, internal, instance=plaque-1
  38, 133, 147
*Elset, elset=__PickedSurf10_E2, internal, instance=plaque-1
  39,  50, 141, 142
*Elset, elset=__PickedSurf10_E4, internal, instance=plaque-1
 145,
*Surface, type=ELEMENT, name=_PickedSurf10, internal
__PickedSurf10_E1, E1
__PickedSurf10_E2, E2
__PickedSurf10_E4, E4
*Elset, elset=__PickedSurf12_E3, internal, instance=plaque-1
 52,
*Elset, elset=__PickedSurf12_E1, internal, instance=plaque-1
 128, 129, 136, 138, 154
*Elset, elset=__PickedSurf12_E2, internal, instance=plaque-1
 134, 135
*Surface, type=ELEMENT, name=_PickedSurf12, internal
__PickedSurf12_E3, E3
__PickedSurf12_E1, E1
__PickedSurf12_E2, E2
*Elset, elset=__PickedSurf14_E3, internal, instance=plaque-1
 54, 69
*Elset, elset=__PickedSurf14_E4, internal, instance=plaque-1
  70,  89, 126, 150
*Elset, elset=__PickedSurf14_E1, internal, instance=plaque-1
 127,
*Elset, elset=__PickedSurf14_E2, internal, instance=plaque-1
 149,
*Surface, type=ELEMENT, name=_PickedSurf14, internal
__PickedSurf14_E3, E3
__PickedSurf14_E4, E4
__PickedSurf14_E2, E2
__PickedSurf14_E1, E1
** Constraint: Constraint-1
*Coupling, constraint name=Constraint-1, ref node=_PickedSet9, surface=_PickedSurf8
*Kinematic
** Constraint: Constraint-2
*Coupling, constraint name=Constraint-2, ref node=_PickedSet11, surface=_PickedSurf10
*Kinematic
** Constraint: Constraint-3
*Coupling, constraint name=Constraint-3, ref node=_PickedSet13, surface=_PickedSurf12
*Kinematic
** Constraint: Constraint-4
*Coupling, constraint name=Constraint-4, ref node=_PickedSet15, surface=_PickedSurf14
*Kinematic
*End Assembly
** 
** MATERIALS
** 
*Material, name=acier
*Density
 7.86e-09,
*Elastic
210000., 0.26
** ----------------------------------------------------------------
** 
** STEP: analyse_modale
** 
*Step, name=analyse_modale, nlgeom=NO, perturbation
*Frequency, eigensolver=Lanczos, sim, acoustic coupling=on, normalization=mass
, , 500., , , 
** 
** BOUNDARY CONDITIONS
** 
** Name: blocage Type: Symmetry/Antisymmetry/Encastre
*Boundary
_PickedSet16, ENCASTRE
** 
** OUTPUT REQUESTS
** 
*Restart, write, frequency=0
** 
** FIELD OUTPUT: F-Output-1
** 
*Output, field
*Node Output, variable=PRESELECT
** 
** HISTORY OUTPUT: H-Output-1
** 
*Output, history
*Energy Output, variable=ALL
*End Step
