*Heading
** Job name: vibration Model name: Model-1
** Generated by: Abaqus/CAE 2025
*Preprint, echo=NO, model=NO, history=NO, contact=NO
**
** PARTS
**
*Part, name=plaque
*Node
      1,   376.478546,   23.5214443,           0.
      2,   375.306976,    20.693018,           0.
      3,   376.478546,   17.8645897,           0.
      4,   379.306976,    16.693018,           0.
      5,   382.135406,   17.8645897,           0.
      6,   383.306976,    20.693018,           0.
      7,   382.135406,   23.5214443,           0.
      8,   379.306976,    24.693018,           0.
      9,   17.8645897,   23.5214443,           0.
     10,    16.693018,    20.693018,           0.
     11,   17.8645897,   17.8645897,           0.
     12,    20.693018,    16.693018,           0.
     13,   23.5214443,   17.8645897,           0.
     14,    24.693018,    20.693018,           0.
     15,   23.5214443,   23.5214443,           0.
     16,    20.693018,    24.693018,           0.
     17,   23.5214443,   376.478546,           0.
     18,    24.693018,   379.306976,           0.
     19,   23.5214443,   382.135406,           0.
     20,    20.693018,   383.306976,           0.
** ... 668 like lines cut
*Element, type=S3
 1, 150, 115, 610
 2, 632, 119, 147
 3, 627, 143, 124
 4, 124,  26,  25
 5, 133,  31,  30
 6, 138, 112, 111
 7, 615, 138, 129
 8, 154,  74,  73
 9, 157,  93,  92
10, 147,  94,  34
11, 633, 161, 164
12, 153,  57,  56
13, 163, 233, 156
14, 177, 157,  92
15, 293, 233, 163
16, 176, 635, 184
17, 153, 233,  57
18, 292, 356, 242
19, 665, 377, 381
20, 646, 411, 261
** ... 28 like lines cut
*Element, type=S4R
 49, 150, 144,  37,  33
 50, 125,   4,   3, 608
 51, 159,   2,   1, 136
 52,  55, 614, 147,  34
 53,  94, 147, 146, 151
 54,  10,   9, 120, 146
 55, 114, 611, 152,  16
 56, 126,  22, 127, 140
 57, 126, 615,  23,  22
 58, 114,  16,  15, 139
 59, 611, 165, 162, 152
 60, 193, 192, 244, 265
 61,  41, 220, 186,  42
 62, 118, 139,  15,  14
 63, 130,   8,   7, 609
 64,  13, 612, 121,  14
 65, 632,  12,  11, 119
 66, 136,   1,   8, 130
 67, 245, 198, 197, 308
 68, 309, 248, 284, 346
** ... 591 like lines cut
*Nset, nset=_PickedSet2, internal, generate
   1,  688,    1
*Elset, elset=_PickedSet2, internal, generate
   1,  659,    1
** Section: tole
*Shell Section, elset=_PickedSet2, material=acier
1., 5
*End Part
**  
**
** ASSEMBLY
**
*Assembly, name=Assembly
**  
*Instance, name=plaque-1, part=plaque
*End Instance
**  
*Node
      1,    20.693018,   379.306976,           0.
*Node
      2,    20.693018,    20.693018,           0.
*Node
      3,   379.306976,    20.693018,           0.
*Node
      4,   379.306976,   379.306976,           0.
*Nset, nset=_PickedSet9, internal
 1,
*Nset, nset=_PickedSet11, internal
 2,
*Nset, nset=_PickedSet13, internal
 3,
*Nset, nset=_PickedSet15, internal
 4,
*Nset, nset=_PickedSet16, internal, generate
 1,  4,  1
*Elset, elset=__PickedSurf8_E3, internal, instance=plaque-1
  32,  57,  74,  75, 141
*Elset, elset=__PickedSurf8_E2, internal, instance=plaque-1
  71,  72, 155
*Surface, type=ELEMENT, name=_PickedSurf8, internal
__PickedSurf8_E3, E3
__PickedSurf8_E2, E2
*Elset, elset=__PickedSurf10_E1, internal, instance=plaque-1
 54, 95
*Elset, elset=__PickedSurf10_E2, internal, instance=plaque-1
  58,  65, 144, 146
*Elset, elset=__PickedSurf10_E3, internal, instance=plaque-1
 62,
*Elset, elset=__PickedSurf10_E4, internal, instance=plaque-1
 64,
*Surface, type=ELEMENT, name=_PickedSurf10, internal
__PickedSurf10_E1, E1
__PickedSurf10_E2, E2
__PickedSurf10_E4, E4
__PickedSurf10_E3, E3
*Elset, elset=__PickedSurf12_E2, internal, instance=plaque-1
  50,  51,  63,  66, 138, 153
*Elset, elset=__PickedSurf12_E3, internal, instance=plaque-1
  80, 139
*Surface, type=ELEMENT, name=_PickedSurf12, internal
__PickedSurf12_E2, E2
__PickedSurf12_E3, E3
*Elset, elset=__PickedSurf14_E2, internal, instance=plaque-1
   4,   5,  33,  79,  97, 122, 151
*Elset, elset=__PickedSurf14_E3, internal, instance=plaque-1
 70,
*Surface, type=ELEMENT, name=_PickedSurf14, internal
__PickedSurf14_E2, E2
__PickedSurf14_E3, E3
** Constraint: Constraint-1
*Coupling, constraint name=Constraint-1, ref node=_PickedSet9, surface=_PickedSurf8
*Kinematic
** Constraint: Constraint-2
*Coupling, constraint name=Constraint-2, ref node=_PickedSet11, surface=_PickedSurf10
*Kinematic
** Constraint: Constraint-3
*Coupling, constraint name=Constraint-3, ref node=_PickedSet13, surface=_PickedSurf12
*Kinematic
** Constraint: Constraint-4
*Coupling, constraint name=Constraint-4, ref node=_PickedSet15, surface=_PickedSurf14
*Kinematic
*End Assembly
** 
** MATERIALS
** 
*Material, name=acier
*Density
 7.86e-09,
*Elastic
210000., 0.26
** ----------------------------------------------------------------
** 
** STEP: analyse_modale
** 
*Step, name=analyse_modale, nlgeom=NO, perturbation
*Frequency, eigensolver=Lanczos, sim, acoustic coupling=on, normalization=mass
, , 500., , , 
** 
** BOUNDARY CONDITIONS
** 
** Name: blocage Type: Symmetry/Antisymmetry/Encastre
*Boundary
_PickedSet16, ENCASTRE
** 
** OUTPUT REQUESTS
** 
*Restart, write, frequency=0
** 
** FIELD OUTPUT: F-Output-1
** 
*Output, field
*Node Output, variable=PRESELECT
** 
** HISTORY OUTPUT: H-Output-1
** 
*Output, history
*Energy Output, variable=ALL
*End Step
