*Heading
** Job name: vibration Model name: Model-1
** Generated by: Abaqus/CAE 2025
*Preprint, echo=NO, model=NO, history=NO, contact=NO
**
** PARTS
**
*Part, name=plaque
*Node
      1,   380.849213,   19.1507816,           0.
      2,   379.677643,   16.3223553,           0.
      3,   380.849213,    13.493928,           0.
      4,   383.677643,   12.3223553,           0.
      5,   386.506073,    13.493928,           0.
      6,   387.677643,   16.3223553,           0.
      7,   386.506073,   19.1507816,           0.
      8,   383.677643,   20.3223553,           0.
      9,    13.493928,   19.1507816,           0.
     10,   12.3223553,   16.3223553,           0.
     11,    13.493928,    13.493928,           0.
     12,   16.3223553,   12.3223553,           0.
     13,   19.1507816,    13.493928,           0.
     14,   20.3223553,   16.3223553,           0.
     15,   19.1507816,   19.1507816,           0.
     16,   16.3223553,   20.3223553,           0.
     17,   19.1507816,   380.849213,           0.
     18,   20.3223553,   383.677643,           0.
     19,   19.1507816,   386.506073,           0.
     20,   16.3223553,   387.677643,           0.
** ... 663 like lines cut
*Element, type=S3
 1,  73, 145,  74
 2, 605, 629, 124
 3, 138, 637,  75
 4, 156,  13, 202
 5,  35,  93, 646
 6, 139,  26,  25
 7,  21, 125,  22
 8, 212,  76, 140
 9, 639, 141,  94
10, 649, 638,  75
11,  34, 134,  94
12, 638, 138,  75
13,  33, 629,  37
14,  73, 146, 145
15, 644, 279, 337
16, 622, 213, 607
17, 683, 682, 599
18, 613, 618, 128
19, 119, 619, 117
20, 634, 621, 274
** ... 20 like lines cut
*Element, type=S4R
 41,  12,  11, 119, 117
 42, 118, 135, 119,  11
 43, 608,  10,   9, 127
 44, 204,  16, 113, 607
 45, 203, 630, 154,  23
 46, 203,  23,  22, 125
 47,  16,  15, 606, 113
 48, 141, 213,  95,  94
 49,  50,  49, 165, 218
 50, 219, 344, 286, 198
 51,  14,  13, 156, 272
 52, 202,  13,  12, 117
 53, 272, 156, 640, 641
 54, 220, 169, 168, 288
 55, 225, 176, 175, 251
 56, 180, 279, 209,  92
 57,  19,  18, 126, 611
 58, 138, 638, 130, 116
 59, 115,  20, 116, 130
 60, 137, 635, 612, 115
** ... 590 like lines cut
*Nset, nset=_PickedSet2, internal, generate
   1,  683,    1
*Elset, elset=_PickedSet2, internal, generate
   1,  650,    1
** Section: tole
*Shell Section, elset=_PickedSet2, material=acier
1., 5
*End Part
**  
**
** ASSEMBLY
**
*Assembly, name=Assembly
**  
*Instance, name=plaque-1, part=plaque
*End Instance
**  
*Node
      1,   16.3223553,   383.677643,           0.
*Node
      2,   16.3223553,   16.3223553,           0.
*Node
      3,   383.677643,   16.3223553,           0.
*Node
      4,   383.677643,   383.677643,           0.
*Nset, nset=_PickedSet9, internal
 1,
*Nset, nset=_PickedSet11, internal
 2,
*Nset, nset=_PickedSet13, internal
 3,
*Nset, nset=_PickedSet15, internal
 4,
*Nset, nset=_PickedSet16, internal, generate
 1,  4,  1
*Elset, elset=__PickedSurf8_E3, internal, instance=plaque-1
  7, 63
*Elset, elset=__PickedSurf8_E2, internal, instance=plaque-1
  46, 144, 156
*Elset, elset=__PickedSurf8_E1, internal, instance=plaque-1
  57,  62, 103
*Surface, type=ELEMENT, name=_PickedSurf8, internal
__PickedSurf8_E3, E3
__PickedSurf8_E2, E2
__PickedSurf8_E1, E1
*Elset, elset=__PickedSurf10_E1, internal, instance=plaque-1
 41, 47, 51
*Elset, elset=__PickedSurf10_E2, internal, instance=plaque-1
  43,  52, 118, 137, 148
*Surface, type=ELEMENT, name=_PickedSurf10, internal
__PickedSurf10_E1, E1
__PickedSurf10_E2, E2
*Elset, elset=__PickedSurf12_E3, internal, instance=plaque-1
 100,
*Elset, elset=__PickedSurf12_E2, internal, instance=plaque-1
 139, 154, 160, 626
*Elset, elset=__PickedSurf12_E4, internal, instance=plaque-1
 157,
*Elset, elset=__PickedSurf12_E1, internal, instance=plaque-1
 158, 625
*Surface, type=ELEMENT, name=_PickedSurf12, internal
__PickedSurf12_E3, E3
__PickedSurf12_E2, E2
__PickedSurf12_E4, E4
__PickedSurf12_E1, E1
*Elset, elset=__PickedSurf14_E2, internal, instance=plaque-1
   6, 136, 150, 152, 153
*Elset, elset=__PickedSurf14_E3, internal, instance=plaque-1
 65, 69
*Elset, elset=__PickedSurf14_E4, internal, instance=plaque-1
 66,
*Surface, type=ELEMENT, name=_PickedSurf14, internal
__PickedSurf14_E2, E2
__PickedSurf14_E3, E3
__PickedSurf14_E4, E4
** Constraint: Constraint-1
*Coupling, constraint name=Constraint-1, ref node=_PickedSet9, surface=_PickedSurf8
*Kinematic
** Constraint: Constraint-2
*Coupling, constraint name=Constraint-2, ref node=_PickedSet11, surface=_PickedSurf10
*Kinematic
** Constraint: Constraint-3
*Coupling, constraint name=Constraint-3, ref node=_PickedSet13, surface=_PickedSurf12
*Kinematic
** Constraint: Constraint-4
*Coupling, constraint name=Constraint-4, ref node=_PickedSet15, surface=_PickedSurf14
*Kinematic
*End Assembly
** 
** MATERIALS
** 
*Material, name=acier
*Density
 7.86e-09,
*Elastic
210000., 0.26
** ----------------------------------------------------------------
** 
** STEP: analyse_modale
** 
*Step, name=analyse_modale, nlgeom=NO, perturbation
*Frequency, eigensolver=Lanczos, sim, acoustic coupling=on, normalization=mass
, , 500., , , 
** 
** BOUNDARY CONDITIONS
** 
** Name: blocage Type: Symmetry/Antisymmetry/Encastre
*Boundary
_PickedSet16, ENCASTRE
** 
** OUTPUT REQUESTS
** 
*Restart, write, frequency=0
** 
** FIELD OUTPUT: F-Output-1
** 
*Output, field
*Node Output, variable=PRESELECT
** 
** HISTORY OUTPUT: H-Output-1
** 
*Output, history
*Energy Output, variable=ALL
*End Step
