*Heading
** Job name: vibration Model name: Model-1
** Generated by: Abaqus/CAE 2025
*Preprint, echo=NO, model=NO, history=NO, contact=NO
**
** PARTS
**
*Part, name=plaque
*Node
      1,   367.677124,    32.322876,           0.
      2,   366.505554,   29.4944477,           0.
      3,   367.677124,   26.6660213,           0.
      4,   370.505554,   25.4944477,           0.
      5,   373.333984,   26.6660213,           0.
      6,   374.505554,   29.4944477,           0.
      7,   373.333984,    32.322876,           0.
      8,   370.505554,   33.4944496,           0.
      9,   26.6660213,    32.322876,           0.
     10,   25.4944477,   29.4944477,           0.
     11,   26.6660213,   26.6660213,           0.
     12,   29.4944477,   25.4944477,           0.
     13,    32.322876,   26.6660213,           0.
     14,   33.4944496,   29.4944477,           0.
     15,    32.322876,    32.322876,           0.
     16,   29.4944477,   33.4944496,           0.
     17,    32.322876,   367.677124,           0.
     18,   33.4944496,   370.505554,           0.
     19,    32.322876,   373.333984,           0.
     20,   29.4944477,   374.505554,           0.
** ... 713 like lines cut
*Element, type=S3
 1, 126, 145, 117
 2, 125, 674, 137
 3, 121, 140,  10
 4, 145, 116, 117
 5, 120,  13,  12
 6, 687,  12,  11
 7, 123,  29,  28
 8, 128,  22,  21
 9, 675, 658, 146
10, 681, 199,  58
11, 124, 171, 143
12, 158, 194, 113
13, 679, 164, 150
14, 669,  38,  37
15, 137,  57,  56
16, 684, 210, 203
17, 211, 177, 182
18, 689, 169,  55
19, 681,  58,  57
20, 701, 217, 698
** ... 24 like lines cut
*Element, type=S4R
 45, 126, 117,   5,   4
 46,   3,   2, 159, 144
 47, 118, 152, 174, 159
 48, 687,  11, 169, 689
 49, 140, 169,  11,  10
 50,   9, 135, 121,  10
 51, 131, 135,   9,  16
 52, 146,  23,  22, 675
 53, 277, 678, 234, 332
 54, 201, 200, 178, 205
 55, 139,  14,  13, 120
 56,   1,   8, 654, 147
 57, 142,  14, 139, 683
 58, 134, 114, 116, 167
 59, 118, 159,   2,   1
 60, 269, 296,  44,  43
 61, 207, 677, 209, 231
 62, 153, 151, 122, 655
 63, 129, 141,  19,  18
 64, 128, 138, 675,  22
** ... 638 like lines cut
*Nset, nset=_PickedSet2, internal, generate
   1,  733,    1
*Elset, elset=_PickedSet2, internal, generate
   1,  702,    1
** Section: tole
*Shell Section, elset=_PickedSet2, material=acier
1., 5
*End Part
**  
**
** ASSEMBLY
**
*Assembly, name=Assembly
**  
*Instance, name=plaque-1, part=plaque
*End Instance
**  
*Node
      1,   29.4944477,   370.505554,           0.
*Node
      2,   29.4944477,   29.4944477,           0.
*Node
      3,   370.505554,   29.4944477,           0.
*Node
      4,   370.505554,   370.505554,           0.
*Nset, nset=_PickedSet9, internal
 1,
*Nset, nset=_PickedSet11, internal
 2,
*Nset, nset=_PickedSet13, internal
 3,
*Nset, nset=_PickedSet15, internal
 4,
*Nset, nset=_PickedSet16, internal, generate
 1,  4,  1
*Elset, elset=__PickedSurf8_E2, internal, instance=plaque-1
   8,  52, 144
*Elset, elset=__PickedSurf8_E3, internal, instance=plaque-1
 63,
*Elset, elset=__PickedSurf8_E4, internal, instance=plaque-1
  65,  66, 100, 128
*Surface, type=ELEMENT, name=_PickedSurf8, internal
__PickedSurf8_E2, E2
__PickedSurf8_E3, E3
__PickedSurf8_E4, E4
*Elset, elset=__PickedSurf10_E2, internal, instance=plaque-1
   5,   6,  55, 135, 145
*Elset, elset=__PickedSurf10_E3, internal, instance=plaque-1
 49, 51
*Elset, elset=__PickedSurf10_E4, internal, instance=plaque-1
 50,
*Surface, type=ELEMENT, name=_PickedSurf10, internal
__PickedSurf10_E2, E2
__PickedSurf10_E3, E3
__PickedSurf10_E4, E4
*Elset, elset=__PickedSurf12_E3, internal, instance=plaque-1
 45, 59, 98
*Elset, elset=__PickedSurf12_E1, internal, instance=plaque-1
  46,  56, 131, 133
*Elset, elset=__PickedSurf12_E2, internal, instance=plaque-1
 690,
*Surface, type=ELEMENT, name=_PickedSurf12, internal
__PickedSurf12_E3, E3
__PickedSurf12_E1, E1
__PickedSurf12_E2, E2
*Elset, elset=__PickedSurf14_E2, internal, instance=plaque-1
 7,
*Elset, elset=__PickedSurf14_E1, internal, instance=plaque-1
  68, 130
*Elset, elset=__PickedSurf14_E4, internal, instance=plaque-1
 69, 72
*Elset, elset=__PickedSurf14_E3, internal, instance=plaque-1
 70, 71, 73
*Surface, type=ELEMENT, name=_PickedSurf14, internal
__PickedSurf14_E2, E2
__PickedSurf14_E1, E1
__PickedSurf14_E4, E4
__PickedSurf14_E3, E3
** Constraint: Constraint-1
*Coupling, constraint name=Constraint-1, ref node=_PickedSet9, surface=_PickedSurf8
*Kinematic
** Constraint: Constraint-2
*Coupling, constraint name=Constraint-2, ref node=_PickedSet11, surface=_PickedSurf10
*Kinematic
** Constraint: Constraint-3
*Coupling, constraint name=Constraint-3, ref node=_PickedSet13, surface=_PickedSurf12
*Kinematic
** Constraint: Constraint-4
*Coupling, constraint name=Constraint-4, ref node=_PickedSet15, surface=_PickedSurf14
*Kinematic
*End Assembly
** 
** MATERIALS
** 
*Material, name=acier
*Density
 7.86e-09,
*Elastic
210000., 0.26
** ----------------------------------------------------------------
** 
** STEP: analyse_modale
** 
*Step, name=analyse_modale, nlgeom=NO, perturbation
*Frequency, eigensolver=Lanczos, sim, acoustic coupling=on, normalization=mass
, , 500., , , 
** 
** BOUNDARY CONDITIONS
** 
** Name: blocage Type: Symmetry/Antisymmetry/Encastre
*Boundary
_PickedSet16, ENCASTRE
** 
** OUTPUT REQUESTS
** 
*Restart, write, frequency=0
** 
** FIELD OUTPUT: F-Output-1
** 
*Output, field
*Node Output, variable=PRESELECT
** 
** HISTORY OUTPUT: H-Output-1
** 
*Output, history
*Energy Output, variable=ALL
*End Step
