*Heading
** Job name: vibration Model name: Model-1
** Generated by: Abaqus/CAE 2025
*Preprint, echo=NO, model=NO, history=NO, contact=NO
**
** PARTS
**
*Part, name=plaque
*Node
      1,   349.466858,   50.5331383,           0.
      2,   348.295288,   47.7047119,           0.
      3,   349.466858,   44.8762856,           0.
      4,   352.295288,   43.7047119,           0.
      5,   355.123718,   44.8762856,           0.
      6,   356.295288,   47.7047119,           0.
      7,   355.123718,   50.5331383,           0.
      8,   352.295288,   51.7047119,           0.
      9,   44.8762856,   50.5331383,           0.
     10,   43.7047119,   47.7047119,           0.
     11,   44.8762856,   44.8762856,           0.
     12,   47.7047119,   43.7047119,           0.
     13,   50.5331383,   44.8762856,           0.
     14,   51.7047119,   47.7047119,           0.
     15,   50.5331383,   50.5331383,           0.
     16,   47.7047119,   51.7047119,           0.
     17,   50.5331383,   349.466858,           0.
     18,   51.7047119,   352.295288,           0.
     19,   50.5331383,   355.123718,           0.
     20,   47.7047119,   356.295288,           0.
** ... 1194 like lines cut
*Element, type=S3
 1, 1093,  125, 1114
 2,   13,  155,   14
 3,  197,  133,  146
 4, 1110,  134, 1090
 5, 1091,  120,  178
 6,  311,  253,  289
 7,  287,  240,  266
 8,  136,   22,   21
 9, 1130,  259,  283
10,  233,  198,  223
11,  215,  148,  193
12,  220,  153,  190
13, 1122,  225,  246
14,  221, 1098,  215
15,  242,  196,  220
16,  185,  263,  217
17, 1190,  535,  551
18, 1129, 1133,  202
19,  333,  282,  311
20,  381,  372,  331
** ... 26 like lines cut
*Element, type=S4R
  47,  213,  238,  187, 1120
  48, 1112,  117, 1089,  160
  49,  160, 1089,  133,  197
  50, 1090,    3,  118,  188
  51,    2, 1091,  118,    3
  52, 1122,  246,  199,  157
  53,   11,  123, 1092,   12
  54, 1113,  159,  219,  195
  55,  114,  172,   16,   15
  56,  168,  135,  154,  194
  57,  139,   23,  135,  168
  58, 1131,  239,  265,  303
  59,  180,  207,  169,  139
  60,  282,  229,  253,  311
  61,  140,    8,    7, 1088
  62,  114,   15,  126,  142
  63,  283,  346,  367,  345
  64,  310,  325,  354,  330
  65,  119,    6,  117,  149
  66,  120,    1,  116,  144
** ... 1118 like lines cut
*Nset, nset=_PickedSet2, internal, generate
    1,  1214,     1
*Elset, elset=_PickedSet2, internal, generate
    1,  1184,     1
** Section: tole
*Shell Section, elset=_PickedSet2, material=acier
1., 5
*End Part
**  
**
** ASSEMBLY
**
*Assembly, name=Assembly
**  
*Instance, name=plaque-1, part=plaque
*End Instance
**  
*Node
      1,   47.7047119,   352.295288,           0.
*Node
      2,   47.7047119,   47.7047119,           0.
*Node
      3,   352.295288,   47.7047119,           0.
*Node
      4,   352.295288,   352.295288,           0.
*Nset, nset=_PickedSet9, internal
 1,
*Nset, nset=_PickedSet11, internal
 2,
*Nset, nset=_PickedSet13, internal
 3,
*Nset, nset=_PickedSet15, internal
 4,
*Nset, nset=_PickedSet16, internal, generate
 1,  4,  1
*Elset, elset=__PickedSurf8_E2, internal, instance=plaque-1
   8, 148, 171
*Elset, elset=__PickedSurf8_E4, internal, instance=plaque-1
  71, 139
*Elset, elset=__PickedSurf8_E1, internal, instance=plaque-1
 78,
*Elset, elset=__PickedSurf8_E3, internal, instance=plaque-1
  120, 1149
*Surface, type=ELEMENT, name=_PickedSurf8, internal
__PickedSurf8_E2, E2
__PickedSurf8_E4, E4
__PickedSurf8_E1, E1
__PickedSurf8_E3, E3
*Elset, elset=__PickedSurf10_E3, internal, instance=plaque-1
  2, 55
*Elset, elset=__PickedSurf10_E4, internal, instance=plaque-1
 53, 91
*Elset, elset=__PickedSurf10_E2, internal, instance=plaque-1, generate
 151,  157,    3
*Elset, elset=__PickedSurf10_E1, internal, instance=plaque-1
 152,
*Surface, type=ELEMENT, name=_PickedSurf10, internal
__PickedSurf10_E3, E3
__PickedSurf10_E4, E4
__PickedSurf10_E2, E2
__PickedSurf10_E1, E1
*Elset, elset=__PickedSurf12_E4, internal, instance=plaque-1
  51, 144, 146
*Elset, elset=__PickedSurf12_E2, internal, instance=plaque-1
  61, 141, 167
*Elset, elset=__PickedSurf12_E1, internal, instance=plaque-1
 142, 143
*Surface, type=ELEMENT, name=_PickedSurf12, internal
__PickedSurf12_E4, E4
__PickedSurf12_E2, E2
__PickedSurf12_E1, E1
*Elset, elset=__PickedSurf14_E3, internal, instance=plaque-1
 70, 82
*Elset, elset=__PickedSurf14_E4, internal, instance=plaque-1
 102, 123
*Elset, elset=__PickedSurf14_E2, internal, instance=plaque-1
 160, 162, 164, 165
*Surface, type=ELEMENT, name=_PickedSurf14, internal
__PickedSurf14_E3, E3
__PickedSurf14_E4, E4
__PickedSurf14_E2, E2
** Constraint: Constraint-1
*Coupling, constraint name=Constraint-1, ref node=_PickedSet9, surface=_PickedSurf8
*Kinematic
** Constraint: Constraint-2
*Coupling, constraint name=Constraint-2, ref node=_PickedSet11, surface=_PickedSurf10
*Kinematic
** Constraint: Constraint-3
*Coupling, constraint name=Constraint-3, ref node=_PickedSet13, surface=_PickedSurf12
*Kinematic
** Constraint: Constraint-4
*Coupling, constraint name=Constraint-4, ref node=_PickedSet15, surface=_PickedSurf14
*Kinematic
*End Assembly
** 
** MATERIALS
** 
*Material, name=acier
*Density
 7.86e-09,
*Elastic
210000., 0.26
** ----------------------------------------------------------------
** 
** STEP: analyse_modale
** 
*Step, name=analyse_modale, nlgeom=NO, perturbation
*Frequency, eigensolver=Lanczos, sim, acoustic coupling=on, normalization=mass
, , 500., , , 
** 
** BOUNDARY CONDITIONS
** 
** Name: blocage Type: Symmetry/Antisymmetry/Encastre
*Boundary
_PickedSet16, ENCASTRE
** 
** OUTPUT REQUESTS
** 
*Restart, write, frequency=0
** 
** FIELD OUTPUT: F-Output-1
** 
*Output, field
*Node Output, variable=PRESELECT
** 
** HISTORY OUTPUT: H-Output-1
** 
*Output, history
*Energy Output, variable=ALL
*End Step
