*Heading
** Job name: vibration Model name: Model-1
** Generated by: Abaqus/CAE 2025
*Preprint, echo=NO, model=NO, history=NO, contact=NO
**
** PARTS
**
*Part, name=plaque
*Node
      1,   357.184631,   42.8153687,           0.
      2,   356.013062,   39.9869423,           0.
      3,   357.184631,   37.1585159,           0.
      4,   360.013062,   35.9869423,           0.
      5,   362.841492,   37.1585159,           0.
      6,   364.013062,   39.9869423,           0.
      7,   362.841492,   42.8153687,           0.
      8,   360.013062,   43.9869423,           0.
      9,   37.1585159,   42.8153687,           0.
     10,   35.9869423,   39.9869423,           0.
     11,   37.1585159,   37.1585159,           0.
     12,   39.9869423,   35.9869423,           0.
     13,   42.8153687,   37.1585159,           0.
     14,   43.9869423,   39.9869423,           0.
     15,   42.8153687,   42.8153687,           0.
     16,   39.9869423,   43.9869423,           0.
     17,   42.8153687,   357.184631,           0.
     18,   43.9869423,   360.013062,           0.
     19,   42.8153687,   362.841492,           0.
     20,   39.9869423,   364.013062,           0.
** ... 1015 like lines cut
*Element, type=S3
 1,  240,  262,  191
 2,  922,  132,  113
 3,  186,  130,  131
 4,  932,  185,  144
 5,  158,   23,  146
 6,  166,  256,  198
 7,  937,  946,  152
 8,  219,  182,  211
 9,  932,  144,   26
10,    3,  156,  133
11,  941,  158,  146
12,  212,  825,  151
13,  119,  201,  140
14,  210,  184,  881
15,  211,  182,  143
16,  949,  268,  243
17,  259,  225,  250
18,  292,  257,  282
19,  370,  347,  992
20,  971,  986,  972
** ... 32 like lines cut
*Element, type=S4R
  53,  117,  147,  119,    6
  54,  117,  153,  178,  147
  55,    5,    4,  916,  153
  56,  118,  156,    3,    2
  57,  198,  226,  206,  171
  58,  929,  920,   11,  124
  59,  918,  116,  917,  931
  60,  170,  205,  142,  116
  61,  146,   23,   22,  135
  62,  200,  221,  199,  173
  63,  125,  157,   15,   14
  64,  190,  157,  164,  945
  65,  173,  115,  158,  200
  66,  945,  164,  227,  253
  67,  160,  188,  166,  120
  68,  126,   14,   13,  149
  69,  139,    8,  114,  165
  70,  164,  157,  125,  919
  71,  125,   14,  126,  919
  72,   12,  123,  152,   13
** ... 936 like lines cut
*Nset, nset=_PickedSet2, internal, generate
    1,  1035,     1
*Elset, elset=_PickedSet2, internal, generate
    1,  1008,     1
** Section: tole
*Shell Section, elset=_PickedSet2, material=acier
1., 5
*End Part
**  
**
** ASSEMBLY
**
*Assembly, name=Assembly
**  
*Instance, name=plaque-1, part=plaque
*End Instance
**  
*Node
      1,   39.9869423,   360.013062,           0.
*Node
      2,   39.9869423,   39.9869423,           0.
*Node
      3,   360.013062,   39.9869423,           0.
*Node
      4,   360.013062,   360.013062,           0.
*Nset, nset=_PickedSet9, internal
 1,
*Nset, nset=_PickedSet11, internal
 2,
*Nset, nset=_PickedSet13, internal
 3,
*Nset, nset=_PickedSet15, internal
 4,
*Nset, nset=_PickedSet16, internal, generate
 1,  4,  1
*Elset, elset=__PickedSurf8_E2, internal, instance=plaque-1
  61,  83, 145, 149, 163, 164
*Elset, elset=__PickedSurf8_E3, internal, instance=plaque-1
 79, 82
*Surface, type=ELEMENT, name=_PickedSurf8, internal
__PickedSurf8_E2, E2
__PickedSurf8_E3, E3
*Elset, elset=__PickedSurf10_E3, internal, instance=plaque-1
 63,
*Elset, elset=__PickedSurf10_E2, internal, instance=plaque-1
  68, 129, 146, 151
*Elset, elset=__PickedSurf10_E4, internal, instance=plaque-1
  72, 132
*Elset, elset=__PickedSurf10_E1, internal, instance=plaque-1
 152,
*Surface, type=ELEMENT, name=_PickedSurf10, internal
__PickedSurf10_E3, E3
__PickedSurf10_E2, E2
__PickedSurf10_E4, E4
__PickedSurf10_E1, E1
*Elset, elset=__PickedSurf12_E1, internal, instance=plaque-1
  55, 144
*Elset, elset=__PickedSurf12_E3, internal, instance=plaque-1
 56, 84, 92
*Elset, elset=__PickedSurf12_E4, internal, instance=plaque-1
 111,
*Elset, elset=__PickedSurf12_E2, internal, instance=plaque-1
 143, 147
*Surface, type=ELEMENT, name=_PickedSurf12, internal
__PickedSurf12_E1, E1
__PickedSurf12_E3, E3
__PickedSurf12_E4, E4
__PickedSurf12_E2, E2
*Elset, elset=__PickedSurf14_E2, internal, instance=plaque-1
  75, 142, 159
*Elset, elset=__PickedSurf14_E3, internal, instance=plaque-1
  78,  89, 160
*Elset, elset=__PickedSurf14_E4, internal, instance=plaque-1
  87, 106
*Surface, type=ELEMENT, name=_PickedSurf14, internal
__PickedSurf14_E2, E2
__PickedSurf14_E3, E3
__PickedSurf14_E4, E4
** Constraint: Constraint-1
*Coupling, constraint name=Constraint-1, ref node=_PickedSet9, surface=_PickedSurf8
*Kinematic
** Constraint: Constraint-2
*Coupling, constraint name=Constraint-2, ref node=_PickedSet11, surface=_PickedSurf10
*Kinematic
** Constraint: Constraint-3
*Coupling, constraint name=Constraint-3, ref node=_PickedSet13, surface=_PickedSurf12
*Kinematic
** Constraint: Constraint-4
*Coupling, constraint name=Constraint-4, ref node=_PickedSet15, surface=_PickedSurf14
*Kinematic
*End Assembly
** 
** MATERIALS
** 
*Material, name=acier
*Density
 7.86e-09,
*Elastic
210000., 0.26
** ----------------------------------------------------------------
** 
** STEP: analyse_modale
** 
*Step, name=analyse_modale, nlgeom=NO, perturbation
*Frequency, eigensolver=Lanczos, sim, acoustic coupling=on, normalization=mass
, , 500., , , 
** 
** BOUNDARY CONDITIONS
** 
** Name: blocage Type: Symmetry/Antisymmetry/Encastre
*Boundary
_PickedSet16, ENCASTRE
** 
** OUTPUT REQUESTS
** 
*Restart, write, frequency=0
** 
** FIELD OUTPUT: F-Output-1
** 
*Output, field
*Node Output, variable=PRESELECT
** 
** HISTORY OUTPUT: H-Output-1
** 
*Output, history
*Energy Output, variable=ALL
*End Step
