*Heading
** Job name: vibration Model name: Model-1
** Generated by: Abaqus/CAE 2025
*Preprint, echo=NO, model=NO, history=NO, contact=NO
**
** PARTS
**
*Part, name=plaque
*Node
      1,   370.550995,    29.449007,           0.
      2,   369.379425,   26.6205788,           0.
      3,   370.550995,   23.7921524,           0.
      4,   373.379425,   22.6205788,           0.
      5,   376.207855,   23.7921524,           0.
      6,   377.379425,   26.6205788,           0.
      7,   376.207855,    29.449007,           0.
      8,   373.379425,   30.6205788,           0.
      9,   23.7921524,    29.449007,           0.
     10,   22.6205788,   26.6205788,           0.
     11,   23.7921524,   23.7921524,           0.
     12,   26.6205788,   22.6205788,           0.
     13,    29.449007,   23.7921524,           0.
     14,   30.6205788,   26.6205788,           0.
     15,    29.449007,    29.449007,           0.
     16,   26.6205788,   30.6205788,           0.
     17,    29.449007,   370.550995,           0.
     18,   30.6205788,   373.379425,           0.
     19,    29.449007,   376.207855,           0.
     20,   26.6205788,   377.379425,           0.
** ... 702 like lines cut
*Element, type=S3
 1,  10, 146,  11
 2, 201, 126, 145
 3, 665, 658, 655
 4, 183, 641, 141
 5, 658, 127, 655
 6,  26, 147,  27
 7, 657, 141, 641
 8, 175, 114, 137
 9, 160, 184, 134
10, 653, 640, 151
11, 183, 141, 634
12, 115, 165, 136
13, 170,  57,  56
14, 629, 178, 161
15, 268, 173, 187
16, 676, 333, 216
17, 678, 384, 430
18, 702, 512, 548
19, 707, 534, 713
20, 705, 459, 457
** ... 16 like lines cut
*Element, type=S4R
 37,   5, 150, 118,   6
 38, 150, 129, 142, 164
 39,   2, 122, 151,   3
 40, 162, 119, 155, 181
 41, 632,  12,  11, 146
 42, 138,   9,  16, 133
 43, 153,  23,  22, 131
 44, 152,  15, 123, 176
 45, 634, 141, 131,  22
 46, 284, 217, 379, 679
 47, 191, 664, 660, 656
 48, 126,  14,  13, 145
 49, 161,   8, 114, 629
 50, 647, 158, 198, 180
 51, 124, 145,  13,  12
 52, 117, 137,   7,   6
 53, 119,   2,   1, 155
 54, 231, 232,  82,  81
 55,  61, 253, 221,  62
 56, 140, 128, 148, 166
** ... 631 like lines cut
*Nset, nset=_PickedSet2, internal, generate
   1,  722,    1
*Elset, elset=_PickedSet2, internal, generate
   1,  687,    1
** Section: tole
*Shell Section, elset=_PickedSet2, material=acier
1., 5
*End Part
**  
**
** ASSEMBLY
**
*Assembly, name=Assembly
**  
*Instance, name=plaque-1, part=plaque
*End Instance
**  
*Node
      1,   26.6205788,   373.379425,           0.
*Node
      2,   26.6205788,   26.6205788,           0.
*Node
      3,   373.379425,   26.6205788,           0.
*Node
      4,   373.379425,   373.379425,           0.
*Nset, nset=_PickedSet9, internal
 1,
*Nset, nset=_PickedSet11, internal
 2,
*Nset, nset=_PickedSet13, internal
 3,
*Nset, nset=_PickedSet15, internal
 4,
*Nset, nset=_PickedSet16, internal, generate
 1,  4,  1
*Elset, elset=__PickedSurf8_E2, internal, instance=plaque-1
  43,  60,  97, 125, 131
*Elset, elset=__PickedSurf8_E4, internal, instance=plaque-1
  96, 132, 144
*Surface, type=ELEMENT, name=_PickedSurf8, internal
__PickedSurf8_E2, E2
__PickedSurf8_E4, E4
*Elset, elset=__PickedSurf10_E3, internal, instance=plaque-1
  1, 51
*Elset, elset=__PickedSurf10_E2, internal, instance=plaque-1
  41,  42,  48, 135, 139
*Elset, elset=__PickedSurf10_E4, internal, instance=plaque-1
 109,
*Surface, type=ELEMENT, name=_PickedSurf10, internal
__PickedSurf10_E3, E3
__PickedSurf10_E2, E2
__PickedSurf10_E4, E4
*Elset, elset=__PickedSurf12_E4, internal, instance=plaque-1
 37, 39, 94
*Elset, elset=__PickedSurf12_E3, internal, instance=plaque-1
  52, 130
*Elset, elset=__PickedSurf12_E2, internal, instance=plaque-1
  53, 123, 143
*Surface, type=ELEMENT, name=_PickedSurf12, internal
__PickedSurf12_E4, E4
__PickedSurf12_E3, E3
__PickedSurf12_E2, E2
*Elset, elset=__PickedSurf14_E3, internal, instance=plaque-1
   6,  66,  67, 153
*Elset, elset=__PickedSurf14_E1, internal, instance=plaque-1
 57,
*Elset, elset=__PickedSurf14_E2, internal, instance=plaque-1
 62,
*Elset, elset=__PickedSurf14_E4, internal, instance=plaque-1
 83, 86
*Surface, type=ELEMENT, name=_PickedSurf14, internal
__PickedSurf14_E3, E3
__PickedSurf14_E1, E1
__PickedSurf14_E2, E2
__PickedSurf14_E4, E4
** Constraint: Constraint-1
*Coupling, constraint name=Constraint-1, ref node=_PickedSet9, surface=_PickedSurf8
*Kinematic
** Constraint: Constraint-2
*Coupling, constraint name=Constraint-2, ref node=_PickedSet11, surface=_PickedSurf10
*Kinematic
** Constraint: Constraint-3
*Coupling, constraint name=Constraint-3, ref node=_PickedSet13, surface=_PickedSurf12
*Kinematic
** Constraint: Constraint-4
*Coupling, constraint name=Constraint-4, ref node=_PickedSet15, surface=_PickedSurf14
*Kinematic
*End Assembly
** 
** MATERIALS
** 
*Material, name=acier
*Density
 7.86e-09,
*Elastic
210000., 0.26
** ----------------------------------------------------------------
** 
** STEP: analyse_modale
** 
*Step, name=analyse_modale, nlgeom=NO, perturbation
*Frequency, eigensolver=Lanczos, sim, acoustic coupling=on, normalization=mass
, , 500., , , 
** 
** BOUNDARY CONDITIONS
** 
** Name: blocage Type: Symmetry/Antisymmetry/Encastre
*Boundary
_PickedSet16, ENCASTRE
** 
** OUTPUT REQUESTS
** 
*Restart, write, frequency=0
** 
** FIELD OUTPUT: F-Output-1
** 
*Output, field
*Node Output, variable=PRESELECT
** 
** HISTORY OUTPUT: H-Output-1
** 
*Output, history
*Energy Output, variable=ALL
*End Step
