*Heading
** Job name: vibration Model name: Model-1
** Generated by: Abaqus/CAE 2025
*Preprint, echo=NO, model=NO, history=NO, contact=NO
**
** PARTS
**
*Part, name=plaque
*Node
      1,    388.33847,   11.6615219,           0.
      2,   387.166901,    8.8330946,           0.
      3,    388.33847,   6.00466776,           0.
      4,   391.166901,    4.8330946,           0.
      5,   393.995331,   6.00466776,           0.
      6,   395.166901,    8.8330946,           0.
      7,   393.995331,   11.6615219,           0.
      8,   391.166901,   12.8330946,           0.
      9,   6.00466776,   11.6615219,           0.
     10,    4.8330946,    8.8330946,           0.
     11,   6.00466776,   6.00466776,           0.
     12,    8.8330946,    4.8330946,           0.
     13,   11.6615219,   6.00466776,           0.
     14,   12.8330946,    8.8330946,           0.
     15,   11.6615219,   11.6615219,           0.
     16,    8.8330946,   12.8330946,           0.
     17,   11.6615219,    388.33847,           0.
     18,   12.8330946,   391.166901,           0.
     19,   11.6615219,   393.995331,           0.
     20,    8.8330946,   395.166901,           0.
** ... 625 like lines cut
*Element, type=S3
 1,  33,  74, 552
 2, 601,  34, 561
 3, 579, 608, 605
 4,  14, 122, 560
 5, 552,  74, 124
 6, 565,  20,  19
 7, 117,  30, 569
 8, 145, 235, 207
 9, 140, 134,  92
10, 122,  14,  13
11, 562,  24,  23
12, 564,  23,  22
13,  36, 566, 565
14,  18, 130,  19
15, 570,  35, 596
16, 129, 131, 571
17, 595, 567,  56
18, 582, 599,  37
19, 141, 213,  76
20, 235, 145, 137
** ... 58 like lines cut
*Element, type=S4R
 79, 554, 555,   4,   3
 80, 557,   9, 120, 559
 81, 126, 119, 135, 204
 82, 560, 116,  15,  14
 83,  15, 127, 114,  16
 84, 135,  24, 118, 563
 85, 159, 158, 215, 252
 86,  38, 143, 201,  39
 87, 553,   8,   7, 124
 88, 216, 168, 167, 225
 89,  57, 147, 150,  58
 90, 125, 117, 134, 140
 91,  75, 565,  19, 130
 92,  21, 575, 576,  22
 93, 119, 132,  18,  17
 94, 144, 148, 141, 132
 95, 578, 134, 117, 569
 96, 570,  28,  27, 128
 97, 595,  26,  25, 567
 98,  32,  31, 113, 133
** ... 533 like lines cut
*Nset, nset=_PickedSet2, internal, generate
   1,  645,    1
*Elset, elset=_PickedSet2, internal, generate
   1,  631,    1
** Section: tole
*Shell Section, elset=_PickedSet2, material=acier
1., 5
*End Part
**  
**
** ASSEMBLY
**
*Assembly, name=Assembly
**  
*Instance, name=plaque-1, part=plaque
*End Instance
**  
*Node
      1,    8.8330946,   391.166901,           0.
*Node
      2,    8.8330946,    8.8330946,           0.
*Node
      3,   391.166901,    8.8330946,           0.
*Node
      4,   391.166901,   391.166901,           0.
*Nset, nset=_PickedSet9, internal
 1,
*Nset, nset=_PickedSet11, internal
 2,
*Nset, nset=_PickedSet13, internal
 3,
*Nset, nset=_PickedSet15, internal
 4,
*Nset, nset=_PickedSet16, internal, generate
 1,  4,  1
*Elset, elset=__PickedSurf8_E2, internal, instance=plaque-1
   6,  11,  12, 166
*Elset, elset=__PickedSurf8_E3, internal, instance=plaque-1
 14, 93
*Elset, elset=__PickedSurf8_E4, internal, instance=plaque-1
  92, 590
*Surface, type=ELEMENT, name=_PickedSurf8, internal
__PickedSurf8_E2, E2
__PickedSurf8_E3, E3
__PickedSurf8_E4, E4
*Elset, elset=__PickedSurf10_E2, internal, instance=plaque-1
  10,  30, 170
*Elset, elset=__PickedSurf10_E3, internal, instance=plaque-1
  82, 607
*Elset, elset=__PickedSurf10_E4, internal, instance=plaque-1
 83,
*Elset, elset=__PickedSurf10_E1, internal, instance=plaque-1
 162, 587
*Surface, type=ELEMENT, name=_PickedSurf10, internal
__PickedSurf10_E2, E2
__PickedSurf10_E3, E3
__PickedSurf10_E4, E4
__PickedSurf10_E1, E1
*Elset, elset=__PickedSurf12_E3, internal, instance=plaque-1
  79, 585
*Elset, elset=__PickedSurf12_E2, internal, instance=plaque-1
  87, 581
*Elset, elset=__PickedSurf12_E4, internal, instance=plaque-1
 101, 159, 163, 173
*Surface, type=ELEMENT, name=_PickedSurf12, internal
__PickedSurf12_E3, E3
__PickedSurf12_E2, E2
__PickedSurf12_E4, E4
*Elset, elset=__PickedSurf14_E2, internal, instance=plaque-1
  96,  97, 160
*Elset, elset=__PickedSurf14_E1, internal, instance=plaque-1
  98, 161, 164
*Elset, elset=__PickedSurf14_E4, internal, instance=plaque-1
 169, 180
*Surface, type=ELEMENT, name=_PickedSurf14, internal
__PickedSurf14_E2, E2
__PickedSurf14_E1, E1
__PickedSurf14_E4, E4
** Constraint: Constraint-1
*Coupling, constraint name=Constraint-1, ref node=_PickedSet9, surface=_PickedSurf8
*Kinematic
** Constraint: Constraint-2
*Coupling, constraint name=Constraint-2, ref node=_PickedSet11, surface=_PickedSurf10
*Kinematic
** Constraint: Constraint-3
*Coupling, constraint name=Constraint-3, ref node=_PickedSet13, surface=_PickedSurf12
*Kinematic
** Constraint: Constraint-4
*Coupling, constraint name=Constraint-4, ref node=_PickedSet15, surface=_PickedSurf14
*Kinematic
*End Assembly
** 
** MATERIALS
** 
*Material, name=acier
*Density
 7.86e-09,
*Elastic
210000., 0.26
** ----------------------------------------------------------------
** 
** STEP: analyse_modale
** 
*Step, name=analyse_modale, nlgeom=NO, perturbation
*Frequency, eigensolver=Lanczos, sim, acoustic coupling=on, normalization=mass
, , 500., , , 
** 
** BOUNDARY CONDITIONS
** 
** Name: blocage Type: Symmetry/Antisymmetry/Encastre
*Boundary
_PickedSet16, ENCASTRE
** 
** OUTPUT REQUESTS
** 
*Restart, write, frequency=0
** 
** FIELD OUTPUT: F-Output-1
** 
*Output, field
*Node Output, variable=PRESELECT
** 
** HISTORY OUTPUT: H-Output-1
** 
*Output, history
*Energy Output, variable=ALL
*End Step
