*Heading
** Job name: vibration Model name: Model-1
** Generated by: Abaqus/CAE 2025
*Preprint, echo=NO, model=NO, history=NO, contact=NO
**
** PARTS
**
*Part, name=plaque
*Node
      1,   387.739197,   12.2608013,           0.
      2,   386.567627,   9.43237495,           0.
      3,   387.739197,   6.60394764,           0.
      4,   390.567627,   5.43237448,           0.
      5,   393.396057,   6.60394764,           0.
      6,   394.567627,   9.43237495,           0.
      7,   393.396057,   12.2608013,           0.
      8,   390.567627,    13.432375,           0.
      9,   6.60394764,   12.2608013,           0.
     10,   5.43237448,   9.43237495,           0.
     11,   6.60394764,   6.60394764,           0.
     12,   9.43237495,   5.43237448,           0.
     13,   12.2608013,   6.60394764,           0.
     14,    13.432375,   9.43237495,           0.
     15,   12.2608013,   12.2608013,           0.
     16,   9.43237495,    13.432375,           0.
     17,   12.2608013,   387.739197,           0.
     18,    13.432375,   390.567627,           0.
     19,   12.2608013,   393.396057,           0.
     20,   9.43237495,   394.567627,           0.
** ... 611 like lines cut
*Element, type=S3
 1, 556, 582, 555
 2, 565,  13,  12
 3, 571, 602, 570
 4, 569, 567, 112
 5,  23, 134,  24
 6, 591,  27, 590
 7,  24, 134, 113
 8, 204, 149, 195
 9, 113,  17,  24
10, 122, 136, 564
11, 561, 584,  10
12, 581,  55, 580
13, 565,  12, 131
14,  19, 571,  20
15, 571, 570,  20
16, 577, 112, 111
17, 142, 129, 121
18, 115, 142, 121
19, 570,  36, 132
20, 160,  57, 138
** ... 40 like lines cut
*Element, type=S4R
 61, 557, 558,   4,   3
 62, 121, 129,   3,   2
 63,  13, 565, 580, 566
 64, 585,  11,  10, 584
 65, 560, 561,  10,   9
 66,   9,  16, 114, 133
 67, 569, 112, 577, 583
 68, 134,  23, 567, 569
 69, 114,  16,  15, 124
 70, 133, 114, 135, 579
 71, 183, 231, 220, 184
 72,  39,  38, 153, 224
 73, 124,  15, 564, 563
 74, 115,   1, 118, 554
 75,  13, 566, 122,  14
 76,   1, 115, 121,   2
 77, 102, 101, 202, 182
 78,  58,  57, 160, 230
 79, 130,  93, 575, 137
 80,  19,  18, 123, 143
** ... 528 like lines cut
*Nset, nset=_PickedSet2, internal, generate
   1,  631,    1
*Elset, elset=_PickedSet2, internal, generate
   1,  608,    1
** Section: tole
*Shell Section, elset=_PickedSet2, material=acier
1., 5
*End Part
**  
**
** ASSEMBLY
**
*Assembly, name=Assembly
**  
*Instance, name=plaque-1, part=plaque
*End Instance
**  
*Node
      1,   9.43237495,   390.567627,           0.
*Node
      2,   9.43237495,   9.43237495,           0.
*Node
      3,   390.567627,   9.43237495,           0.
*Node
      4,   390.567627,   390.567627,           0.
*Nset, nset=_PickedSet9, internal
 1,
*Nset, nset=_PickedSet11, internal
 2,
*Nset, nset=_PickedSet13, internal
 3,
*Nset, nset=_PickedSet15, internal
 4,
*Nset, nset=_PickedSet16, internal, generate
 1,  4,  1
*Elset, elset=__PickedSurf8_E3, internal, instance=plaque-1
   5,  14, 158
*Elset, elset=__PickedSurf8_E2, internal, instance=plaque-1
   9, 586
*Elset, elset=__PickedSurf8_E1, internal, instance=plaque-1
  80, 166, 587
*Surface, type=ELEMENT, name=_PickedSurf8, internal
__PickedSurf8_E3, E3
__PickedSurf8_E2, E2
__PickedSurf8_E1, E1
*Elset, elset=__PickedSurf10_E2, internal, instance=plaque-1
   2,  33,  64,  69, 150
*Elset, elset=__PickedSurf10_E3, internal, instance=plaque-1
 65,
*Elset, elset=__PickedSurf10_E1, internal, instance=plaque-1
 66,
*Elset, elset=__PickedSurf10_E4, internal, instance=plaque-1
 75,
*Surface, type=ELEMENT, name=_PickedSurf10, internal
__PickedSurf10_E2, E2
__PickedSurf10_E3, E3
__PickedSurf10_E4, E4
__PickedSurf10_E1, E1
*Elset, elset=__PickedSurf12_E3, internal, instance=plaque-1
 61, 62, 85
*Elset, elset=__PickedSurf12_E4, internal, instance=plaque-1
  76, 583
*Elset, elset=__PickedSurf12_E2, internal, instance=plaque-1
 151, 580
*Elset, elset=__PickedSurf12_E1, internal, instance=plaque-1
 584,
*Surface, type=ELEMENT, name=_PickedSurf12, internal
__PickedSurf12_E3, E3
__PickedSurf12_E4, E4
__PickedSurf12_E2, E2
__PickedSurf12_E1, E1
*Elset, elset=__PickedSurf14_E3, internal, instance=plaque-1
  37,  83, 592
*Elset, elset=__PickedSurf14_E4, internal, instance=plaque-1
 102,
*Elset, elset=__PickedSurf14_E1, internal, instance=plaque-1
 154, 593
*Elset, elset=__PickedSurf14_E2, internal, instance=plaque-1
 157, 591
*Surface, type=ELEMENT, name=_PickedSurf14, internal
__PickedSurf14_E3, E3
__PickedSurf14_E4, E4
__PickedSurf14_E2, E2
__PickedSurf14_E1, E1
** Constraint: Constraint-1
*Coupling, constraint name=Constraint-1, ref node=_PickedSet9, surface=_PickedSurf8
*Kinematic
** Constraint: Constraint-2
*Coupling, constraint name=Constraint-2, ref node=_PickedSet11, surface=_PickedSurf10
*Kinematic
** Constraint: Constraint-3
*Coupling, constraint name=Constraint-3, ref node=_PickedSet13, surface=_PickedSurf12
*Kinematic
** Constraint: Constraint-4
*Coupling, constraint name=Constraint-4, ref node=_PickedSet15, surface=_PickedSurf14
*Kinematic
*End Assembly
** 
** MATERIALS
** 
*Material, name=acier
*Density
 7.86e-09,
*Elastic
210000., 0.26
** ----------------------------------------------------------------
** 
** STEP: analyse_modale
** 
*Step, name=analyse_modale, nlgeom=NO, perturbation
*Frequency, eigensolver=Lanczos, sim, acoustic coupling=on, normalization=mass
, , 500., , , 
** 
** BOUNDARY CONDITIONS
** 
** Name: blocage Type: Symmetry/Antisymmetry/Encastre
*Boundary
_PickedSet16, ENCASTRE
** 
** OUTPUT REQUESTS
** 
*Restart, write, frequency=0
** 
** FIELD OUTPUT: F-Output-1
** 
*Output, field
*Node Output, variable=PRESELECT
** 
** HISTORY OUTPUT: H-Output-1
** 
*Output, history
*Energy Output, variable=ALL
*End Step
