*Heading
** Job name: vibration Model name: Model-1
** Generated by: Abaqus/CAE 2025
*Preprint, echo=NO, model=NO, history=NO, contact=NO
**
** PARTS
**
*Part, name=plaque
*Node
      1,   362.002411,   37.9975815,           0.
      2,   360.830841,   35.1691551,           0.
      3,   362.002411,   32.3407249,           0.
      4,   364.830841,   31.1691532,           0.
      5,   367.659271,   32.3407249,           0.
      6,   368.830841,   35.1691551,           0.
      7,   367.659271,   37.9975815,           0.
      8,   364.830841,   39.1691551,           0.
      9,   32.3407249,   37.9975815,           0.
     10,   31.1691532,   35.1691551,           0.
     11,   32.3407249,   32.3407249,           0.
     12,   35.1691551,   31.1691532,           0.
     13,   37.9975815,   32.3407249,           0.
     14,   39.1691551,   35.1691551,           0.
     15,   37.9975815,   37.9975815,           0.
     16,   35.1691551,   39.1691551,           0.
     17,   37.9975815,   362.002411,           0.
     18,   39.1691551,   364.830841,           0.
     19,   37.9975815,   367.659271,           0.
     20,   35.1691551,   368.830841,           0.
** ... 824 like lines cut
*Element, type=S3
 1, 713,   1, 113
 2, 177, 728, 145
 3, 210, 185, 184
 4, 710, 132, 159
 5, 144, 184, 185
 6, 726, 202, 171
 7, 143,  28, 152
 8, 740, 153, 733
 9, 202, 726, 181
10, 745, 205, 199
11, 220, 213, 186
12, 177,  57,  56
13, 420, 327, 365
14, 245, 412, 401
15, 432, 391, 393
16, 427, 505, 536
17, 793, 469, 499
18, 418, 779, 772
19, 565, 524, 520
20, 788, 614, 581
** ... 18 like lines cut
*Element, type=S4R
 39, 178, 200, 176, 140
 40, 125,   3, 116, 154
 41, 116,   3,   2, 712
 42,  10, 148, 716,  11
 43, 130,  16, 115, 158
 44, 211, 186, 137, 185
 45, 126, 137, 131,  23
 46, 115,  16,  15, 714
 47, 406, 731, 179, 304
 48, 305, 362, 416, 370
 49, 295, 238, 235, 361
 50, 773, 241, 246, 355
 51, 120, 136, 714,  15
 52,   8,   7, 132, 710
 53, 254, 315,  48,  47
 54, 140,   6,   5, 178
 55, 381, 335, 351, 385
 56, 314, 245, 401, 282
 57, 138, 730, 167, 124
 58, 123,  29,  28, 143
** ... 752 like lines cut
*Nset, nset=_PickedSet2, internal, generate
   1,  844,    1
*Elset, elset=_PickedSet2, internal, generate
   1,  810,    1
** Section: tole
*Shell Section, elset=_PickedSet2, material=acier
1., 5
*End Part
**  
**
** ASSEMBLY
**
*Assembly, name=Assembly
**  
*Instance, name=plaque-1, part=plaque
*End Instance
**  
*Node
      1,   35.1691551,   364.830841,           0.
*Node
      2,   35.1691551,   35.1691551,           0.
*Node
      3,   364.830841,   35.1691551,           0.
*Node
      4,   364.830841,   364.830841,           0.
*Nset, nset=_PickedSet9, internal
 1,
*Nset, nset=_PickedSet11, internal
 2,
*Nset, nset=_PickedSet13, internal
 3,
*Nset, nset=_PickedSet15, internal
 4,
*Nset, nset=_PickedSet16, internal, generate
 1,  4,  1
*Elset, elset=__PickedSurf8_E3, internal, instance=plaque-1
  62,  63, 134, 144, 158
*Elset, elset=__PickedSurf8_E2, internal, instance=plaque-1
 145, 156, 160
*Surface, type=ELEMENT, name=_PickedSurf8, internal
__PickedSurf8_E3, E3
__PickedSurf8_E2, E2
*Elset, elset=__PickedSurf10_E4, internal, instance=plaque-1
 42, 86, 90
*Elset, elset=__PickedSurf10_E2, internal, instance=plaque-1
  46, 146, 149
*Elset, elset=__PickedSurf10_E3, internal, instance=plaque-1
 123,
*Elset, elset=__PickedSurf10_E1, internal, instance=plaque-1
 147,
*Surface, type=ELEMENT, name=_PickedSurf10, internal
__PickedSurf10_E4, E4
__PickedSurf10_E2, E2
__PickedSurf10_E3, E3
__PickedSurf10_E1, E1
*Elset, elset=__PickedSurf12_E2, internal, instance=plaque-1
  41,  54, 137
*Elset, elset=__PickedSurf12_E1, internal, instance=plaque-1
 52,
*Elset, elset=__PickedSurf12_E3, internal, instance=plaque-1
  75, 154
*Elset, elset=__PickedSurf12_E4, internal, instance=plaque-1
 105, 140
*Surface, type=ELEMENT, name=_PickedSurf12, internal
__PickedSurf12_E2, E2
__PickedSurf12_E1, E1
__PickedSurf12_E4, E4
__PickedSurf12_E3, E3
*Elset, elset=__PickedSurf14_E2, internal, instance=plaque-1
 58, 68, 72
*Elset, elset=__PickedSurf14_E3, internal, instance=plaque-1
  66,  93, 153
*Elset, elset=__PickedSurf14_E4, internal, instance=plaque-1
  70, 138
*Surface, type=ELEMENT, name=_PickedSurf14, internal
__PickedSurf14_E2, E2
__PickedSurf14_E3, E3
__PickedSurf14_E4, E4
** Constraint: Constraint-1
*Coupling, constraint name=Constraint-1, ref node=_PickedSet9, surface=_PickedSurf8
*Kinematic
** Constraint: Constraint-2
*Coupling, constraint name=Constraint-2, ref node=_PickedSet11, surface=_PickedSurf10
*Kinematic
** Constraint: Constraint-3
*Coupling, constraint name=Constraint-3, ref node=_PickedSet13, surface=_PickedSurf12
*Kinematic
** Constraint: Constraint-4
*Coupling, constraint name=Constraint-4, ref node=_PickedSet15, surface=_PickedSurf14
*Kinematic
*End Assembly
** 
** MATERIALS
** 
*Material, name=acier
*Density
 7.86e-09,
*Elastic
210000., 0.26
** ----------------------------------------------------------------
** 
** STEP: analyse_modale
** 
*Step, name=analyse_modale, nlgeom=NO, perturbation
*Frequency, eigensolver=Lanczos, sim, acoustic coupling=on, normalization=mass
, , 500., , , 
** 
** BOUNDARY CONDITIONS
** 
** Name: blocage Type: Symmetry/Antisymmetry/Encastre
*Boundary
_PickedSet16, ENCASTRE
** 
** OUTPUT REQUESTS
** 
*Restart, write, frequency=0
** 
** FIELD OUTPUT: F-Output-1
** 
*Output, field
*Node Output, variable=PRESELECT
** 
** HISTORY OUTPUT: H-Output-1
** 
*Output, history
*Energy Output, variable=ALL
*End Step
