*Heading
** Job name: vibration Model name: Model-1
** Generated by: Abaqus/CAE 2025
*Preprint, echo=NO, model=NO, history=NO, contact=NO
**
** PARTS
**
*Part, name=plaque
*Node
      1,   380.990417,    19.009573,           0.
      2,   379.818848,   16.1811447,           0.
      3,   380.990417,   13.3527184,           0.
      4,   383.818848,   12.1811447,           0.
      5,   386.647278,   13.3527184,           0.
      6,   387.818848,   16.1811447,           0.
      7,   386.647278,    19.009573,           0.
      8,   383.818848,   20.1811447,           0.
      9,   13.3527184,    19.009573,           0.
     10,   12.1811447,   16.1811447,           0.
     11,   13.3527184,   13.3527184,           0.
     12,   16.1811447,   12.1811447,           0.
     13,    19.009573,   13.3527184,           0.
     14,   20.1811447,   16.1811447,           0.
     15,    19.009573,    19.009573,           0.
     16,   16.1811447,   20.1811447,           0.
     17,    19.009573,   380.990417,           0.
     18,   20.1811447,   383.818848,           0.
     19,    19.009573,   386.647278,           0.
     20,   16.1811447,   387.818848,           0.
** ... 643 like lines cut
*Element, type=S3
 1, 636, 198, 283
 2,  24, 131, 276
 3, 631, 630,  37
 4, 629, 599, 154
 5, 635,  36, 112
 6, 616,  33, 134
 7, 613,  34,  55
 8, 122,  10,   9
 9, 141, 137,  35
10, 616, 623,  33
11, 142,  21, 116
12, 617,  75,  36
13, 137,  56,  35
14, 139,  94,  34
15, 144,  94, 139
16, 622, 149, 164
17, 151,  95,  94
18, 157,   7,   6
19, 158, 601, 157
20, 165, 155, 624
** ... 24 like lines cut
*Element, type=S4R
 45, 143, 117,   5,   4
 46, 143, 616, 134, 117
 47, 145, 621, 600, 130
 48, 130, 600,   4,   3
 49, 630, 145, 115, 153
 50, 121,  12,  11, 140
 51, 144, 139, 606, 122
 52, 151,  94, 144, 114
 53, 119, 604,  15,  14
 54, 150, 133, 628, 164
 55, 191, 292, 258, 192
 56, 223, 342, 287, 203
 57, 123,  14,  13, 605
 58, 605, 120, 148, 207
 59, 207, 148,  55,  54
 60, 157,  74,  73, 158
 61, 179, 178, 225, 233
 62, 229, 186, 185, 259
 63, 632, 210, 279, 640
 64,  92, 611, 206,  93
** ... 568 like lines cut
*Nset, nset=_PickedSet2, internal, generate
   1,  663,    1
*Elset, elset=_PickedSet2, internal, generate
   1,  632,    1
** Section: tole
*Shell Section, elset=_PickedSet2, material=acier
1., 5
*End Part
**  
**
** ASSEMBLY
**
*Assembly, name=Assembly
**  
*Instance, name=plaque-1, part=plaque
*End Instance
**  
*Node
      1,   16.1811447,   383.818848,           0.
*Node
      2,   16.1811447,   16.1811447,           0.
*Node
      3,   383.818848,   16.1811447,           0.
*Node
      4,   383.818848,   383.818848,           0.
*Nset, nset=_PickedSet9, internal
 1,
*Nset, nset=_PickedSet11, internal
 2,
*Nset, nset=_PickedSet13, internal
 3,
*Nset, nset=_PickedSet15, internal
 4,
*Nset, nset=_PickedSet16, internal, generate
 1,  4,  1
*Elset, elset=__PickedSurf8_E3, internal, instance=plaque-1
 67,
*Elset, elset=__PickedSurf8_E2, internal, instance=plaque-1
  68, 106, 144, 156, 159
*Elset, elset=__PickedSurf8_E1, internal, instance=plaque-1
 143, 157
*Surface, type=ELEMENT, name=_PickedSurf8, internal
__PickedSurf8_E3, E3
__PickedSurf8_E2, E2
__PickedSurf8_E1, E1
*Elset, elset=__PickedSurf10_E2, internal, instance=plaque-1
   8,  50,  57, 139, 140
*Elset, elset=__PickedSurf10_E3, internal, instance=plaque-1
 53,
*Elset, elset=__PickedSurf10_E1, internal, instance=plaque-1
 122, 146
*Surface, type=ELEMENT, name=_PickedSurf10, internal
__PickedSurf10_E2, E2
__PickedSurf10_E3, E3
__PickedSurf10_E1, E1
*Elset, elset=__PickedSurf12_E2, internal, instance=plaque-1
  18, 141, 162, 180
*Elset, elset=__PickedSurf12_E3, internal, instance=plaque-1
  45,  48, 103, 164
*Surface, type=ELEMENT, name=_PickedSurf12, internal
__PickedSurf12_E2, E2
__PickedSurf12_E3, E3
*Elset, elset=__PickedSurf14_E1, internal, instance=plaque-1
 70,
*Elset, elset=__PickedSurf14_E4, internal, instance=plaque-1
 72,
*Elset, elset=__PickedSurf14_E3, internal, instance=plaque-1
  73, 218
*Elset, elset=__PickedSurf14_E2, internal, instance=plaque-1
 138, 151, 154, 155
*Surface, type=ELEMENT, name=_PickedSurf14, internal
__PickedSurf14_E1, E1
__PickedSurf14_E4, E4
__PickedSurf14_E2, E2
__PickedSurf14_E3, E3
** Constraint: Constraint-1
*Coupling, constraint name=Constraint-1, ref node=_PickedSet9, surface=_PickedSurf8
*Kinematic
** Constraint: Constraint-2
*Coupling, constraint name=Constraint-2, ref node=_PickedSet11, surface=_PickedSurf10
*Kinematic
** Constraint: Constraint-3
*Coupling, constraint name=Constraint-3, ref node=_PickedSet13, surface=_PickedSurf12
*Kinematic
** Constraint: Constraint-4
*Coupling, constraint name=Constraint-4, ref node=_PickedSet15, surface=_PickedSurf14
*Kinematic
*End Assembly
** 
** MATERIALS
** 
*Material, name=acier
*Density
 7.86e-09,
*Elastic
210000., 0.26
** ----------------------------------------------------------------
** 
** STEP: analyse_modale
** 
*Step, name=analyse_modale, nlgeom=NO, perturbation
*Frequency, eigensolver=Lanczos, sim, acoustic coupling=on, normalization=mass
, , 500., , , 
** 
** BOUNDARY CONDITIONS
** 
** Name: blocage Type: Symmetry/Antisymmetry/Encastre
*Boundary
_PickedSet16, ENCASTRE
** 
** OUTPUT REQUESTS
** 
*Restart, write, frequency=0
** 
** FIELD OUTPUT: F-Output-1
** 
*Output, field
*Node Output, variable=PRESELECT
** 
** HISTORY OUTPUT: H-Output-1
** 
*Output, history
*Energy Output, variable=ALL
*End Step
