*Heading
** Job name: vibration Model name: Model-1
** Generated by: Abaqus/CAE 2025
*Preprint, echo=NO, model=NO, history=NO, contact=NO
**
** PARTS
**
*Part, name=plaque
*Node
      1,   378.644958,    21.355051,           0.
      2,   377.473389,   18.5266247,           0.
      3,   378.644958,   15.6981964,           0.
      4,   381.473389,   14.5266237,           0.
      5,   384.301788,   15.6981964,           0.
      6,   385.473389,   18.5266247,           0.
      7,   384.301788,    21.355051,           0.
      8,   381.473389,   22.5266247,           0.
      9,   15.6981964,    21.355051,           0.
     10,   14.5266237,   18.5266247,           0.
     11,   15.6981964,   15.6981964,           0.
     12,   18.5266247,   14.5266237,           0.
     13,    21.355051,   15.6981964,           0.
     14,   22.5266247,   18.5266247,           0.
     15,    21.355051,    21.355051,           0.
     16,   18.5266247,   22.5266247,           0.
     17,    21.355051,   378.644958,           0.
     18,   22.5266247,   381.473389,           0.
     19,    21.355051,   384.301788,           0.
     20,   18.5266247,   385.473389,           0.
** ... 663 like lines cut
*Element, type=S3
 1, 607, 168, 155
 2, 143,  55,  54
 3, 146, 138, 123
 4, 133, 196, 159
 5, 605, 156, 140
 6, 158, 170, 125
 7, 629, 199, 203
 8, 121, 165, 141
 9, 175, 147, 138
10, 180, 145, 119
11, 618,  13,  12
12, 617, 614,  34
13, 617, 618, 144
14, 131, 158,  32
15, 188, 182, 195
16, 171, 135,  74
17, 174, 143,  54
18,  34, 614,  94
19, 152, 119,   9
20, 615,  93, 146
** ... 28 like lines cut
*Element, type=S4R
 49, 151, 135,   6,   5
 50, 127, 136,   4,   3
 51, 136, 127, 150,  37
 52, 156, 605,   2,   1
 53,  12,  11, 144, 618
 54,  10,   9, 119, 145
 55, 606, 115, 155, 168
 56, 130,  16,  15, 134
 57, 167, 198, 619, 153
 58,  48, 209, 210,  49
 59, 189, 176, 194, 255
 60,   8, 113, 161,   1
 61,  13, 618, 143, 626
 62, 268, 215, 214, 271
 63, 251, 186, 203, 640
 64, 121, 141, 122,  30
 65, 116,  19, 128, 148
 66, 118,  20, 137, 609
 67, 116, 137,  20,  19
 68,  21, 149, 142,  22
** ... 586 like lines cut
*Nset, nset=_PickedSet2, internal, generate
   1,  683,    1
*Elset, elset=_PickedSet2, internal, generate
   1,  654,    1
** Section: tole
*Shell Section, elset=_PickedSet2, material=acier
1., 5
*End Part
**  
**
** ASSEMBLY
**
*Assembly, name=Assembly
**  
*Instance, name=plaque-1, part=plaque
*End Instance
**  
*Node
      1,   18.5266247,   381.473389,           0.
*Node
      2,   18.5266247,   18.5266247,           0.
*Node
      3,   381.473389,   18.5266247,           0.
*Node
      4,   381.473389,   381.473389,           0.
*Nset, nset=_PickedSet9, internal
 1,
*Nset, nset=_PickedSet11, internal
 2,
*Nset, nset=_PickedSet13, internal
 3,
*Nset, nset=_PickedSet15, internal
 4,
*Nset, nset=_PickedSet16, internal, generate
 1,  4,  1
*Elset, elset=__PickedSurf8_E3, internal, instance=plaque-1
 67,
*Elset, elset=__PickedSurf8_E4, internal, instance=plaque-1
  68, 132
*Elset, elset=__PickedSurf8_E1, internal, instance=plaque-1
  70, 106
*Elset, elset=__PickedSurf8_E2, internal, instance=plaque-1
 138, 152, 153
*Surface, type=ELEMENT, name=_PickedSurf8, internal
__PickedSurf8_E3, E3
__PickedSurf8_E4, E4
__PickedSurf8_E2, E2
__PickedSurf8_E1, E1
*Elset, elset=__PickedSurf10_E2, internal, instance=plaque-1
 11, 56
*Elset, elset=__PickedSurf10_E1, internal, instance=plaque-1
  53,  54, 119, 136
*Elset, elset=__PickedSurf10_E3, internal, instance=plaque-1
 120, 623
*Surface, type=ELEMENT, name=_PickedSurf10, internal
__PickedSurf10_E2, E2
__PickedSurf10_E1, E1
__PickedSurf10_E3, E3
*Elset, elset=__PickedSurf12_E3, internal, instance=plaque-1
 49, 50, 52
*Elset, elset=__PickedSurf12_E4, internal, instance=plaque-1
 60,
*Elset, elset=__PickedSurf12_E2, internal, instance=plaque-1
 134, 137
*Elset, elset=__PickedSurf12_E1, internal, instance=plaque-1
 139, 151
*Surface, type=ELEMENT, name=_PickedSurf12, internal
__PickedSurf12_E3, E3
__PickedSurf12_E4, E4
__PickedSurf12_E2, E2
__PickedSurf12_E1, E1
*Elset, elset=__PickedSurf14_E1, internal, instance=plaque-1
 72,
*Elset, elset=__PickedSurf14_E3, internal, instance=plaque-1
 73, 74
*Elset, elset=__PickedSurf14_E4, internal, instance=plaque-1
 92, 94
*Elset, elset=__PickedSurf14_E2, internal, instance=plaque-1
 144, 145, 149
*Surface, type=ELEMENT, name=_PickedSurf14, internal
__PickedSurf14_E1, E1
__PickedSurf14_E3, E3
__PickedSurf14_E4, E4
__PickedSurf14_E2, E2
** Constraint: Constraint-1
*Coupling, constraint name=Constraint-1, ref node=_PickedSet9, surface=_PickedSurf8
*Kinematic
** Constraint: Constraint-2
*Coupling, constraint name=Constraint-2, ref node=_PickedSet11, surface=_PickedSurf10
*Kinematic
** Constraint: Constraint-3
*Coupling, constraint name=Constraint-3, ref node=_PickedSet13, surface=_PickedSurf12
*Kinematic
** Constraint: Constraint-4
*Coupling, constraint name=Constraint-4, ref node=_PickedSet15, surface=_PickedSurf14
*Kinematic
*End Assembly
** 
** MATERIALS
** 
*Material, name=acier
*Density
 7.86e-09,
*Elastic
210000., 0.26
** ----------------------------------------------------------------
** 
** STEP: analyse_modale
** 
*Step, name=analyse_modale, nlgeom=NO, perturbation
*Frequency, eigensolver=Lanczos, sim, acoustic coupling=on, normalization=mass
, , 500., , , 
** 
** BOUNDARY CONDITIONS
** 
** Name: blocage Type: Symmetry/Antisymmetry/Encastre
*Boundary
_PickedSet16, ENCASTRE
** 
** OUTPUT REQUESTS
** 
*Restart, write, frequency=0
** 
** FIELD OUTPUT: F-Output-1
** 
*Output, field
*Node Output, variable=PRESELECT
** 
** HISTORY OUTPUT: H-Output-1
** 
*Output, history
*Energy Output, variable=ALL
*End Step
