*Heading
** Job name: vibration Model name: Model-1
** Generated by: Abaqus/CAE 2025
*Preprint, echo=NO, model=NO, history=NO, contact=NO
**
** PARTS
**
*Part, name=plaque
*Node
      1,   357.723785,   42.2761993,           0.
      2,   356.552216,    39.447773,           0.
      3,   357.723785,   36.6193466,           0.
      4,   360.552216,    35.447773,           0.
      5,   363.380646,   36.6193466,           0.
      6,   364.552216,    39.447773,           0.
      7,   363.380646,   42.2761993,           0.
      8,   360.552216,    43.447773,           0.
      9,   36.6193466,   42.2761993,           0.
     10,    35.447773,    39.447773,           0.
     11,   36.6193466,   36.6193466,           0.
     12,    39.447773,    35.447773,           0.
     13,   42.2761993,   36.6193466,           0.
     14,    43.447773,    39.447773,           0.
     15,   42.2761993,   42.2761993,           0.
     16,    39.447773,    43.447773,           0.
     17,   42.2761993,   357.723785,           0.
     18,    43.447773,   360.552216,           0.
     19,   42.2761993,   363.380646,           0.
     20,    39.447773,   364.552216,           0.
** ... 869 like lines cut
*Element, type=S3
 1, 787,  29, 123
 2, 155, 145, 798
 3, 152, 801, 150
 4, 219, 191, 157
 5, 245, 187, 216
 6, 800, 178, 801
 7, 241, 183, 201
 8, 367, 823, 306
 9, 805, 175, 139
10, 309, 190, 215
11, 826, 297, 266
12, 251, 200, 330
13, 206, 792, 147
14, 178, 215, 190
15, 248, 230, 171
16, 797, 254, 239
17, 797, 239, 204
18, 227, 262, 253
19, 375, 285, 357
20, 352, 330, 200
** ... 20 like lines cut
*Element, type=S4R
 41, 803, 805, 154, 188
 42, 188, 154, 776, 146
 43,   3, 118, 157, 125
 44, 809, 140, 118, 777
 45, 120,  13, 121, 151
 46, 801, 178, 190, 150
 47, 119,  10,   9, 159
 48, 159,   9,  16, 130
 49, 126, 184, 137, 783
 50, 126, 783,  23,  22
 51, 114,  16,  15, 778
 52, 176, 227, 253, 796
 53, 223, 814, 233, 265
 54, 148, 778,  15,  14
 55,   8,   7, 133, 161
 56, 120, 148,  14,  13
 57, 152, 150,  12,  11
 58, 115,   1, 775, 135
 59, 284, 287, 280, 283
 60, 122, 134, 786,  31
** ... 796 like lines cut
*Nset, nset=_PickedSet2, internal, generate
   1,  889,    1
*Elset, elset=_PickedSet2, internal, generate
   1,  856,    1
** Section: tole
*Shell Section, elset=_PickedSet2, material=acier
1., 5
*End Part
**  
**
** ASSEMBLY
**
*Assembly, name=Assembly
**  
*Instance, name=plaque-1, part=plaque
*End Instance
**  
*Node
      1,    39.447773,   360.552216,           0.
*Node
      2,    39.447773,    39.447773,           0.
*Node
      3,   360.552216,    39.447773,           0.
*Node
      4,   360.552216,   360.552216,           0.
*Nset, nset=_PickedSet9, internal
 1,
*Nset, nset=_PickedSet11, internal
 2,
*Nset, nset=_PickedSet13, internal
 3,
*Nset, nset=_PickedSet15, internal
 4,
*Nset, nset=_PickedSet16, internal, generate
 1,  4,  1
*Elset, elset=__PickedSurf8_E3, internal, instance=plaque-1
 50,
*Elset, elset=__PickedSurf8_E4, internal, instance=plaque-1
  64,  66, 146
*Elset, elset=__PickedSurf8_E1, internal, instance=plaque-1
 67,
*Elset, elset=__PickedSurf8_E2, internal, instance=plaque-1
  69, 147, 167
*Surface, type=ELEMENT, name=_PickedSurf8, internal
__PickedSurf8_E3, E3
__PickedSurf8_E4, E4
__PickedSurf8_E2, E2
__PickedSurf8_E1, E1
*Elset, elset=__PickedSurf10_E2, internal, instance=plaque-1
  47,  48,  51, 152
*Elset, elset=__PickedSurf10_E3, internal, instance=plaque-1
  54,  56,  57, 150
*Surface, type=ELEMENT, name=_PickedSurf10, internal
__PickedSurf10_E2, E2
__PickedSurf10_E3, E3
*Elset, elset=__PickedSurf12_E1, internal, instance=plaque-1
 55, 79
*Elset, elset=__PickedSurf12_E3, internal, instance=plaque-1
  76, 823
*Elset, elset=__PickedSurf12_E2, internal, instance=plaque-1
  78, 140, 143, 149
*Surface, type=ELEMENT, name=_PickedSurf12, internal
__PickedSurf12_E1, E1
__PickedSurf12_E3, E3
__PickedSurf12_E2, E2
*Elset, elset=__PickedSurf14_E2, internal, instance=plaque-1
  61,  73,  74,  75, 154
*Elset, elset=__PickedSurf14_E3, internal, instance=plaque-1
  71, 156
*Elset, elset=__PickedSurf14_E4, internal, instance=plaque-1
 117,
*Surface, type=ELEMENT, name=_PickedSurf14, internal
__PickedSurf14_E2, E2
__PickedSurf14_E3, E3
__PickedSurf14_E4, E4
** Constraint: Constraint-1
*Coupling, constraint name=Constraint-1, ref node=_PickedSet9, surface=_PickedSurf8
*Kinematic
** Constraint: Constraint-2
*Coupling, constraint name=Constraint-2, ref node=_PickedSet11, surface=_PickedSurf10
*Kinematic
** Constraint: Constraint-3
*Coupling, constraint name=Constraint-3, ref node=_PickedSet13, surface=_PickedSurf12
*Kinematic
** Constraint: Constraint-4
*Coupling, constraint name=Constraint-4, ref node=_PickedSet15, surface=_PickedSurf14
*Kinematic
*End Assembly
** 
** MATERIALS
** 
*Material, name=acier
*Density
 7.86e-09,
*Elastic
210000., 0.26
** ----------------------------------------------------------------
** 
** STEP: analyse_modale
** 
*Step, name=analyse_modale, nlgeom=NO, perturbation
*Frequency, eigensolver=Lanczos, sim, acoustic coupling=on, normalization=mass
, , 500., , , 
** 
** BOUNDARY CONDITIONS
** 
** Name: blocage Type: Symmetry/Antisymmetry/Encastre
*Boundary
_PickedSet16, ENCASTRE
** 
** OUTPUT REQUESTS
** 
*Restart, write, frequency=0
** 
** FIELD OUTPUT: F-Output-1
** 
*Output, field
*Node Output, variable=PRESELECT
** 
** HISTORY OUTPUT: H-Output-1
** 
*Output, history
*Energy Output, variable=ALL
*End Step
