*Heading
** Job name: vibration Model name: Model-1
** Generated by: Abaqus/CAE 2025
*Preprint, echo=NO, model=NO, history=NO, contact=NO
**
** PARTS
**
*Part, name=plaque
*Node
      1,   381.224152,   18.7758522,           0.
      2,   380.052582,   15.9474239,           0.
      3,   381.224152,   13.1189966,           0.
      4,   384.052582,   11.9474239,           0.
      5,   386.881012,   13.1189966,           0.
      6,   388.052582,   15.9474239,           0.
      7,   386.881012,   18.7758522,           0.
      8,   384.052582,   19.9474239,           0.
      9,   13.1189966,   18.7758522,           0.
     10,   11.9474239,   15.9474239,           0.
     11,   13.1189966,   13.1189966,           0.
     12,   15.9474239,   11.9474239,           0.
     13,   18.7758522,   13.1189966,           0.
     14,   19.9474239,   15.9474239,           0.
     15,   18.7758522,   18.7758522,           0.
     16,   15.9474239,   19.9474239,           0.
     17,   18.7758522,   381.224152,           0.
     18,   19.9474239,   384.052582,           0.
     19,   18.7758522,   386.881012,           0.
     20,   15.9474239,   388.052582,           0.
** ... 646 like lines cut
*Element, type=S3
 1, 615, 614,  94
 2, 598,  11,  10
 3, 218, 115,  23
 4,  74, 608,  33
 5, 628, 154, 147
 6, 122,  10,   9
 7,  16, 149,   9
 8, 126, 139,  27
 9, 605,  26, 629
10,  20, 140,  21
11, 131, 628, 118
12, 132, 158, 145
13, 129,  37, 135
14, 139,  93, 125
15, 613,  56,  35
16, 126, 613, 139
17, 130,  36, 112
18, 134, 608,  74
19,  36, 130, 140
20, 150,  57,  56
** ... 34 like lines cut
*Element, type=S4R
 55, 117,   6,   5, 141
 56,   4, 127, 141,   5
 57, 129, 135, 127,   4
 58, 129, 597, 151,  37
 59, 121,  12,  11, 138
 60, 598, 122, 137, 600
 61, 115, 218, 112, 205
 62, 230, 338, 223, 607
 63, 599, 133,  16,  15
 64,  16, 133, 144, 149
 65, 197, 292, 263, 198
 66,  40, 213, 171,  41
 67,  13, 153, 120,  14
 68,   8, 114, 596, 146
 69, 153,  55, 156, 120
 70, 187, 186, 232, 235
 71, 166, 158, 162, 635
 72, 148, 165, 162, 158
 73, 143,  29,  28, 125
 74,  18, 128, 602,  19
** ... 566 like lines cut
*Nset, nset=_PickedSet2, internal, generate
   1,  666,    1
*Elset, elset=_PickedSet2, internal, generate
   1,  640,    1
** Section: tole
*Shell Section, elset=_PickedSet2, material=acier
1., 5
*End Part
**  
**
** ASSEMBLY
**
*Assembly, name=Assembly
**  
*Instance, name=plaque-1, part=plaque
*End Instance
**  
*Node
      1,   15.9474239,   384.052582,           0.
*Node
      2,   15.9474239,   15.9474239,           0.
*Node
      3,   384.052582,   15.9474239,           0.
*Node
      4,   384.052582,   384.052582,           0.
*Nset, nset=_PickedSet9, internal
 1,
*Nset, nset=_PickedSet11, internal
 2,
*Nset, nset=_PickedSet13, internal
 3,
*Nset, nset=_PickedSet15, internal
 4,
*Nset, nset=_PickedSet16, internal, generate
 1,  4,  1
*Elset, elset=__PickedSurf8_E3, internal, instance=plaque-1
 10, 25, 40, 78
*Elset, elset=__PickedSurf8_E4, internal, instance=plaque-1
  74,  77, 157
*Elset, elset=__PickedSurf8_E2, internal, instance=plaque-1
 149,
*Surface, type=ELEMENT, name=_PickedSurf8, internal
__PickedSurf8_E3, E3
__PickedSurf8_E4, E4
__PickedSurf8_E2, E2
*Elset, elset=__PickedSurf10_E2, internal, instance=plaque-1
  2,  6, 59
*Elset, elset=__PickedSurf10_E3, internal, instance=plaque-1
   7,  63, 144
*Elset, elset=__PickedSurf10_E4, internal, instance=plaque-1
  67, 150
*Surface, type=ELEMENT, name=_PickedSurf10, internal
__PickedSurf10_E2, E2
__PickedSurf10_E3, E3
__PickedSurf10_E4, E4
*Elset, elset=__PickedSurf12_E2, internal, instance=plaque-1
  55, 143, 148, 158
*Elset, elset=__PickedSurf12_E4, internal, instance=plaque-1
 56, 88
*Elset, elset=__PickedSurf12_E1, internal, instance=plaque-1
 145, 615
*Surface, type=ELEMENT, name=_PickedSurf12, internal
__PickedSurf12_E2, E2
__PickedSurf12_E4, E4
__PickedSurf12_E1, E1
*Elset, elset=__PickedSurf14_E2, internal, instance=plaque-1
 42, 73, 82
*Elset, elset=__PickedSurf14_E1, internal, instance=plaque-1
  83, 142, 155
*Elset, elset=__PickedSurf14_E3, internal, instance=plaque-1
 84,
*Elset, elset=__PickedSurf14_E4, internal, instance=plaque-1
 153,
*Surface, type=ELEMENT, name=_PickedSurf14, internal
__PickedSurf14_E2, E2
__PickedSurf14_E1, E1
__PickedSurf14_E4, E4
__PickedSurf14_E3, E3
** Constraint: Constraint-1
*Coupling, constraint name=Constraint-1, ref node=_PickedSet9, surface=_PickedSurf8
*Kinematic
** Constraint: Constraint-2
*Coupling, constraint name=Constraint-2, ref node=_PickedSet11, surface=_PickedSurf10
*Kinematic
** Constraint: Constraint-3
*Coupling, constraint name=Constraint-3, ref node=_PickedSet13, surface=_PickedSurf12
*Kinematic
** Constraint: Constraint-4
*Coupling, constraint name=Constraint-4, ref node=_PickedSet15, surface=_PickedSurf14
*Kinematic
*End Assembly
** 
** MATERIALS
** 
*Material, name=acier
*Density
 7.86e-09,
*Elastic
210000., 0.26
** ----------------------------------------------------------------
** 
** STEP: analyse_modale
** 
*Step, name=analyse_modale, nlgeom=NO, perturbation
*Frequency, eigensolver=Lanczos, sim, acoustic coupling=on, normalization=mass
, , 500., , , 
** 
** BOUNDARY CONDITIONS
** 
** Name: blocage Type: Symmetry/Antisymmetry/Encastre
*Boundary
_PickedSet16, ENCASTRE
** 
** OUTPUT REQUESTS
** 
*Restart, write, frequency=0
** 
** FIELD OUTPUT: F-Output-1
** 
*Output, field
*Node Output, variable=PRESELECT
** 
** HISTORY OUTPUT: H-Output-1
** 
*Output, history
*Energy Output, variable=ALL
*End Step
