*Heading
** Job name: vibration Model name: Model-1
** Generated by: Abaqus/CAE 2025
*Preprint, echo=NO, model=NO, history=NO, contact=NO
**
** PARTS
**
*Part, name=plaque
*Node
      1,   368.470001,   31.5299988,           0.
      2,   367.298431,   28.7015724,           0.
      3,   368.470001,   25.8731461,           0.
      4,   371.298431,   24.7015724,           0.
      5,   374.126862,   25.8731461,           0.
      6,   375.298431,   28.7015724,           0.
      7,   374.126862,   31.5299988,           0.
      8,   371.298431,   32.7015724,           0.
      9,   25.8731461,   31.5299988,           0.
     10,   24.7015724,   28.7015724,           0.
     11,   25.8731461,   25.8731461,           0.
     12,   28.7015724,   24.7015724,           0.
     13,   31.5299988,   25.8731461,           0.
     14,   32.7015724,   28.7015724,           0.
     15,   31.5299988,   31.5299988,           0.
     16,   28.7015724,   32.7015724,           0.
     17,   31.5299988,   368.470001,           0.
     18,   32.7015724,   371.298431,           0.
     19,   31.5299988,   374.126862,           0.
     20,   28.7015724,   375.298431,           0.
** ... 762 like lines cut
*Element, type=S3
 1, 135,   6,   5
 2, 175, 187, 150
 3, 156, 130, 151
 4,   7, 131, 114
 5, 716, 186, 179
 6, 162, 122, 146
 7, 194, 163,  75
 8, 125, 709, 142
 9, 707, 184, 157
10, 122, 162, 137
11,  56, 166, 133
12, 194, 167, 136
13,  57, 714, 184
14, 190, 158, 139
15, 166,  93, 709
16, 281, 296, 258
17, 365, 340, 318
18, 589, 514, 500
19, 424, 385, 353
20, 440, 406, 427
** ... 14 like lines cut
*Element, type=S4R
 35, 145,   5,   4, 127
 36, 118, 144,   3,   2
 37, 120, 140,  11,  10
 38, 193, 165, 137, 162
 39, 715, 712, 121,  12
 40, 122, 137, 120,  10
 41, 132, 117,  16,  15
 42, 149,  23,  22, 167
 43, 170,  24, 116, 178
 44, 546, 164, 147, 160
 45, 189, 168, 215, 218
 46, 132,  15,  14, 123
 47, 114, 175,   8,   7
 48, 121, 141,  13,  12
 49, 169, 141, 121, 712
 50, 131,   7,   6, 135
 51, 118,   2, 119, 155
 52, 356, 378, 422, 381
 53, 288, 199, 271, 260
 54, 151, 708, 172, 156
** ... 692 like lines cut
*Nset, nset=_PickedSet2, internal, generate
   1,  782,    1
*Elset, elset=_PickedSet2, internal, generate
   1,  746,    1
** Section: tole
*Shell Section, elset=_PickedSet2, material=acier
1., 5
*End Part
**  
**
** ASSEMBLY
**
*Assembly, name=Assembly
**  
*Instance, name=plaque-1, part=plaque
*End Instance
**  
*Node
      1,   28.7015724,   371.298431,           0.
*Node
      2,   28.7015724,   28.7015724,           0.
*Node
      3,   371.298431,   28.7015724,           0.
*Node
      4,   371.298431,   371.298431,           0.
*Nset, nset=_PickedSet9, internal
 1,
*Nset, nset=_PickedSet11, internal
 2,
*Nset, nset=_PickedSet13, internal
 3,
*Nset, nset=_PickedSet15, internal
 4,
*Nset, nset=_PickedSet16, internal, generate
 1,  4,  1
*Elset, elset=__PickedSurf8_E2, internal, instance=plaque-1
  42,  58,  60,  98, 121, 124
*Elset, elset=__PickedSurf8_E3, internal, instance=plaque-1
 59, 96
*Surface, type=ELEMENT, name=_PickedSurf8, internal
__PickedSurf8_E2, E2
__PickedSurf8_E3, E3
*Elset, elset=__PickedSurf10_E3, internal, instance=plaque-1
 37, 41, 48
*Elset, elset=__PickedSurf10_E2, internal, instance=plaque-1
  46, 129
*Elset, elset=__PickedSurf10_E4, internal, instance=plaque-1
  79, 108
*Elset, elset=__PickedSurf10_E1, internal, instance=plaque-1
 128,
*Surface, type=ELEMENT, name=_PickedSurf10, internal
__PickedSurf10_E3, E3
__PickedSurf10_E2, E2
__PickedSurf10_E4, E4
__PickedSurf10_E1, E1
*Elset, elset=__PickedSurf12_E2, internal, instance=plaque-1
   1,  35,  50, 134
*Elset, elset=__PickedSurf12_E3, internal, instance=plaque-1
 36, 47
*Elset, elset=__PickedSurf12_E4, internal, instance=plaque-1
 92,
*Elset, elset=__PickedSurf12_E1, internal, instance=plaque-1
 127,
*Surface, type=ELEMENT, name=_PickedSurf12, internal
__PickedSurf12_E2, E2
__PickedSurf12_E3, E3
__PickedSurf12_E4, E4
__PickedSurf12_E1, E1
*Elset, elset=__PickedSurf14_E4, internal, instance=plaque-1
  55,  62,  63,  84, 105
*Elset, elset=__PickedSurf14_E3, internal, instance=plaque-1
 64, 83
*Elset, elset=__PickedSurf14_E2, internal, instance=plaque-1
 119,
*Surface, type=ELEMENT, name=_PickedSurf14, internal
__PickedSurf14_E4, E4
__PickedSurf14_E3, E3
__PickedSurf14_E2, E2
** Constraint: Constraint-1
*Coupling, constraint name=Constraint-1, ref node=_PickedSet9, surface=_PickedSurf8
*Kinematic
** Constraint: Constraint-2
*Coupling, constraint name=Constraint-2, ref node=_PickedSet11, surface=_PickedSurf10
*Kinematic
** Constraint: Constraint-3
*Coupling, constraint name=Constraint-3, ref node=_PickedSet13, surface=_PickedSurf12
*Kinematic
** Constraint: Constraint-4
*Coupling, constraint name=Constraint-4, ref node=_PickedSet15, surface=_PickedSurf14
*Kinematic
*End Assembly
** 
** MATERIALS
** 
*Material, name=acier
*Density
 7.86e-09,
*Elastic
210000., 0.26
** ----------------------------------------------------------------
** 
** STEP: analyse_modale
** 
*Step, name=analyse_modale, nlgeom=NO, perturbation
*Frequency, eigensolver=Lanczos, sim, acoustic coupling=on, normalization=mass
, , 500., , , 
** 
** BOUNDARY CONDITIONS
** 
** Name: blocage Type: Symmetry/Antisymmetry/Encastre
*Boundary
_PickedSet16, ENCASTRE
** 
** OUTPUT REQUESTS
** 
*Restart, write, frequency=0
** 
** FIELD OUTPUT: F-Output-1
** 
*Output, field
*Node Output, variable=PRESELECT
** 
** HISTORY OUTPUT: H-Output-1
** 
*Output, history
*Energy Output, variable=ALL
*End Step
