*Heading
** Job name: vibration Model name: Model-1
** Generated by: Abaqus/CAE 2025
*Preprint, echo=NO, model=NO, history=NO, contact=NO
**
** PARTS
**
*Part, name=plaque
*Node
      1,   360.085266,   39.9147491,           0.
      2,   358.913666,   37.0863228,           0.
      3,   360.085266,   34.2578926,           0.
      4,   362.913666,   33.0863228,           0.
      5,   365.742096,   34.2578926,           0.
      6,   366.913666,   37.0863228,           0.
      7,   365.742096,   39.9147491,           0.
      8,   362.913666,   41.0863228,           0.
      9,   34.2578926,   39.9147491,           0.
     10,   33.0863228,   37.0863228,           0.
     11,   34.2578926,   34.2578926,           0.
     12,   37.0863228,   33.0863228,           0.
     13,   39.9147491,   34.2578926,           0.
     14,   41.0863228,   37.0863228,           0.
     15,   39.9147491,   39.9147491,           0.
     16,   37.0863228,   41.0863228,           0.
     17,   39.9147491,   360.085266,           0.
     18,   41.0863228,   362.913666,           0.
     19,   39.9147491,   365.742096,           0.
     20,   37.0863228,   366.913666,           0.
** ... 845 like lines cut
*Element, type=S3
 1, 148, 160, 121
 2, 163, 113, 749
 3, 165, 750, 118
 4, 122,  12,  11
 5, 793, 780, 142
 6, 155, 122, 152
 7, 774, 198, 162
 8, 750, 180, 137
 9, 765, 211, 146
10, 270, 196, 235
11, 203,  95,  94
12, 768, 203, 182
13, 236, 177, 198
14, 205, 215, 190
15, 273, 229, 251
16, 189, 797, 791
17, 802, 249, 236
18, 792, 241, 200
19, 313, 226, 260
20, 813, 375, 265
** ... 18 like lines cut
*Element, type=S4R
 39, 181, 209,  74,  73
 40, 187,   4, 143, 212
 41, 130,   3, 117, 156
 42, 117,   3,   2, 751
 43, 155, 152, 199, 205
 44,  10, 153, 126,  11
 45, 205, 190, 776, 155
 46, 768, 161, 775, 783
 47,  16, 754, 135,   9
 48, 759, 210, 223, 188
 49, 136,  23, 131, 759
 50,  15, 755, 115,  16
 51, 249, 204, 177, 236
 52, 219, 170, 228, 272
 53, 334, 413, 387, 293
 54, 142, 755, 124, 176
 55,   8,   7, 137, 749
 56, 124,  14, 125, 154
 57, 116, 150,   6,   5
 58, 119,   2,   1, 752
** ... 773 like lines cut
*Nset, nset=_PickedSet2, internal, generate
   1,  865,    1
*Elset, elset=_PickedSet2, internal, generate
   1,  831,    1
** Section: tole
*Shell Section, elset=_PickedSet2, material=acier
1., 5
*End Part
**  
**
** ASSEMBLY
**
*Assembly, name=Assembly
**  
*Instance, name=plaque-1, part=plaque
*End Instance
**  
*Node
      1,   37.0863228,   362.913666,           0.
*Node
      2,   37.0863228,   37.0863228,           0.
*Node
      3,   362.913666,   37.0863228,           0.
*Node
      4,   362.913666,   362.913666,           0.
*Nset, nset=_PickedSet9, internal
 1,
*Nset, nset=_PickedSet11, internal
 2,
*Nset, nset=_PickedSet13, internal
 3,
*Nset, nset=_PickedSet15, internal
 4,
*Nset, nset=_PickedSet16, internal, generate
 1,  4,  1
*Elset, elset=__PickedSurf8_E2, internal, instance=plaque-1
  65, 138, 152
*Elset, elset=__PickedSurf8_E1, internal, instance=plaque-1
 102, 137, 154, 157
*Elset, elset=__PickedSurf8_E3, internal, instance=plaque-1
 129,
*Surface, type=ELEMENT, name=_PickedSurf8, internal
__PickedSurf8_E2, E2
__PickedSurf8_E1, E1
__PickedSurf8_E3, E3
*Elset, elset=__PickedSurf10_E2, internal, instance=plaque-1
   4, 140
*Elset, elset=__PickedSurf10_E4, internal, instance=plaque-1, generate
 44,  50,   3
*Elset, elset=__PickedSurf10_E3, internal, instance=plaque-1
 117,
*Elset, elset=__PickedSurf10_E1, internal, instance=plaque-1
 133, 141
*Surface, type=ELEMENT, name=_PickedSurf10, internal
__PickedSurf10_E2, E2
__PickedSurf10_E4, E4
__PickedSurf10_E3, E3
__PickedSurf10_E1, E1
*Elset, elset=__PickedSurf12_E2, internal, instance=plaque-1
  42,  58, 135
*Elset, elset=__PickedSurf12_E1, internal, instance=plaque-1
  55, 131
*Elset, elset=__PickedSurf12_E3, internal, instance=plaque-1
 57, 76
*Elset, elset=__PickedSurf12_E4, internal, instance=plaque-1
 100,
*Surface, type=ELEMENT, name=_PickedSurf12, internal
__PickedSurf12_E2, E2
__PickedSurf12_E1, E1
__PickedSurf12_E4, E4
__PickedSurf12_E3, E3
*Elset, elset=__PickedSurf14_E3, internal, instance=plaque-1
 60, 62
*Elset, elset=__PickedSurf14_E4, internal, instance=plaque-1
 71, 72
*Elset, elset=__PickedSurf14_E2, internal, instance=plaque-1
  73, 146, 151
*Elset, elset=__PickedSurf14_E1, internal, instance=plaque-1
 150,
*Surface, type=ELEMENT, name=_PickedSurf14, internal
__PickedSurf14_E3, E3
__PickedSurf14_E4, E4
__PickedSurf14_E2, E2
__PickedSurf14_E1, E1
** Constraint: Constraint-1
*Coupling, constraint name=Constraint-1, ref node=_PickedSet9, surface=_PickedSurf8
*Kinematic
** Constraint: Constraint-2
*Coupling, constraint name=Constraint-2, ref node=_PickedSet11, surface=_PickedSurf10
*Kinematic
** Constraint: Constraint-3
*Coupling, constraint name=Constraint-3, ref node=_PickedSet13, surface=_PickedSurf12
*Kinematic
** Constraint: Constraint-4
*Coupling, constraint name=Constraint-4, ref node=_PickedSet15, surface=_PickedSurf14
*Kinematic
*End Assembly
** 
** MATERIALS
** 
*Material, name=acier
*Density
 7.86e-09,
*Elastic
210000., 0.26
** ----------------------------------------------------------------
** 
** STEP: analyse_modale
** 
*Step, name=analyse_modale, nlgeom=NO, perturbation
*Frequency, eigensolver=Lanczos, sim, acoustic coupling=on, normalization=mass
, , 500., , , 
** 
** BOUNDARY CONDITIONS
** 
** Name: blocage Type: Symmetry/Antisymmetry/Encastre
*Boundary
_PickedSet16, ENCASTRE
** 
** OUTPUT REQUESTS
** 
*Restart, write, frequency=0
** 
** FIELD OUTPUT: F-Output-1
** 
*Output, field
*Node Output, variable=PRESELECT
** 
** HISTORY OUTPUT: H-Output-1
** 
*Output, history
*Energy Output, variable=ALL
*End Step
