*Heading
** Job name: vibration Model name: Model-1
** Generated by: Abaqus/CAE 2025
*Preprint, echo=NO, model=NO, history=NO, contact=NO
**
** PARTS
**
*Part, name=plaque
*Node
      1,   355.499268,   44.5007248,           0.
      2,   354.327698,   41.6722984,           0.
      3,   355.499268,   38.8438721,           0.
      4,   358.327698,   37.6722984,           0.
      5,   361.156128,   38.8438721,           0.
      6,   362.327698,   41.6722984,           0.
      7,   361.156128,   44.5007248,           0.
      8,   358.327698,   45.6722984,           0.
      9,   38.8438721,   44.5007248,           0.
     10,   37.6722984,   41.6722984,           0.
     11,   38.8438721,   38.8438721,           0.
     12,   41.6722984,   37.6722984,           0.
     13,   44.5007248,   38.8438721,           0.
     14,   45.6722984,   41.6722984,           0.
     15,   44.5007248,   44.5007248,           0.
     16,   41.6722984,   45.6722984,           0.
     17,   44.5007248,   355.499268,           0.
     18,   45.6722984,   358.327698,           0.
     19,   44.5007248,   361.156128,           0.
     20,   41.6722984,   362.327698,           0.
** ... 1106 like lines cut
*Element, type=S3
 1,  156,    5,  131
 2,  976,  123,  143
 3,  139,    7,  120
 4,  974,  117,  172
 5,  166,  139,  120
 6,  232,  165,  180
 7,  238,  236,  257
 8,  259, 1033,  221
 9,  877,  997,  207
10, 1026,  239,  226
11,  389,  377,  381
12, 1030, 1029,  270
13,  235,  304,  830
14,  322,  817,  254
15,  367,  346,  338
16,  563,  523,  541
17,  576,  558,  578
18,  606,  647,  637
19,  651,  663,  640
20,  709,  726,  698
** ... 18 like lines cut
*Element, type=S4R
  39,  120,  182,  266,  206
  40,  215,  191, 1008, 1010
  41,  973,    3,  116,  178
  42,  973,  178,  205,  161
  43,  195,  219, 1028,  153
  44,  154,   11,  121,  981
  45,  153,  125,  154,  189
  46,  978,  122,  186,  212
  47,  163,   16,  115,  977
  48,  144,  134, 1004,  187
  49,  136,  983,   23,   22
  50,  115,   16,   15,  976
  51, 1044,  349,  243,  173
  52,  213,  246,  259,  221
  53,  248,  256, 1062,  241
  54,    8,  164,  113,    1
  55,    8,    7,  139,  164
  56,  248,  211, 1043, 1058
  57,  123,   14,  124,  980
  58,  125,  155,   13,   12
** ... 1034 like lines cut
*Nset, nset=_PickedSet2, internal, generate
    1,  1126,     1
*Elset, elset=_PickedSet2, internal, generate
    1,  1092,     1
** Section: tole
*Shell Section, elset=_PickedSet2, material=acier
1., 5
*End Part
**  
**
** ASSEMBLY
**
*Assembly, name=Assembly
**  
*Instance, name=plaque-1, part=plaque
*End Instance
**  
*Node
      1,   41.6722984,   358.327698,           0.
*Node
      2,   41.6722984,   41.6722984,           0.
*Node
      3,   358.327698,   41.6722984,           0.
*Node
      4,   358.327698,   358.327698,           0.
*Nset, nset=_PickedSet9, internal
 1,
*Nset, nset=_PickedSet11, internal
 2,
*Nset, nset=_PickedSet13, internal
 3,
*Nset, nset=_PickedSet15, internal
 4,
*Nset, nset=_PickedSet16, internal, generate
 1,  4,  1
*Elset, elset=__PickedSurf8_E3, internal, instance=plaque-1
 49,
*Elset, elset=__PickedSurf8_E4, internal, instance=plaque-1
 132, 143, 144
*Elset, elset=__PickedSurf8_E2, internal, instance=plaque-1
 145, 167, 173
*Elset, elset=__PickedSurf8_E1, internal, instance=plaque-1
 169,
*Surface, type=ELEMENT, name=_PickedSurf8, internal
__PickedSurf8_E3, E3
__PickedSurf8_E4, E4
__PickedSurf8_E2, E2
__PickedSurf8_E1, E1
*Elset, elset=__PickedSurf10_E2, internal, instance=plaque-1
  50, 148, 152
*Elset, elset=__PickedSurf10_E3, internal, instance=plaque-1
  58, 149
*Elset, elset=__PickedSurf10_E4, internal, instance=plaque-1
 123, 137
*Elset, elset=__PickedSurf10_E1, internal, instance=plaque-1
 147,
*Surface, type=ELEMENT, name=_PickedSurf10, internal
__PickedSurf10_E2, E2
__PickedSurf10_E3, E3
__PickedSurf10_E4, E4
__PickedSurf10_E1, E1
*Elset, elset=__PickedSurf12_E4, internal, instance=plaque-1
  54,  59, 140
*Elset, elset=__PickedSurf12_E1, internal, instance=plaque-1
  55, 141
*Elset, elset=__PickedSurf12_E2, internal, instance=plaque-1
 106, 139, 163
*Surface, type=ELEMENT, name=_PickedSurf12, internal
__PickedSurf12_E4, E4
__PickedSurf12_E1, E1
__PickedSurf12_E2, E2
*Elset, elset=__PickedSurf14_E2, internal, instance=plaque-1
  62,  81, 155, 158, 159, 160
*Elset, elset=__PickedSurf14_E3, internal, instance=plaque-1
 79,
*Elset, elset=__PickedSurf14_E1, internal, instance=plaque-1
 119,
*Surface, type=ELEMENT, name=_PickedSurf14, internal
__PickedSurf14_E2, E2
__PickedSurf14_E3, E3
__PickedSurf14_E1, E1
** Constraint: Constraint-1
*Coupling, constraint name=Constraint-1, ref node=_PickedSet9, surface=_PickedSurf8
*Kinematic
** Constraint: Constraint-2
*Coupling, constraint name=Constraint-2, ref node=_PickedSet11, surface=_PickedSurf10
*Kinematic
** Constraint: Constraint-3
*Coupling, constraint name=Constraint-3, ref node=_PickedSet13, surface=_PickedSurf12
*Kinematic
** Constraint: Constraint-4
*Coupling, constraint name=Constraint-4, ref node=_PickedSet15, surface=_PickedSurf14
*Kinematic
*End Assembly
** 
** MATERIALS
** 
*Material, name=acier
*Density
 7.86e-09,
*Elastic
210000., 0.26
** ----------------------------------------------------------------
** 
** STEP: analyse_modale
** 
*Step, name=analyse_modale, nlgeom=NO, perturbation
*Frequency, eigensolver=Lanczos, sim, acoustic coupling=on, normalization=mass
, , 500., , , 
** 
** BOUNDARY CONDITIONS
** 
** Name: blocage Type: Symmetry/Antisymmetry/Encastre
*Boundary
_PickedSet16, ENCASTRE
** 
** OUTPUT REQUESTS
** 
*Restart, write, frequency=0
** 
** FIELD OUTPUT: F-Output-1
** 
*Output, field
*Node Output, variable=PRESELECT
** 
** HISTORY OUTPUT: H-Output-1
** 
*Output, history
*Energy Output, variable=ALL
*End Step
