*Heading
** Job name: vibration Model name: Model-1
** Generated by: Abaqus/CAE 2025
*Preprint, echo=NO, model=NO, history=NO, contact=NO
**
** PARTS
**
*Part, name=plaque
*Node
      1,   369.430786,   30.5692139,           0.
      2,   368.259216,   27.7407856,           0.
      3,   369.430786,   24.9123592,           0.
      4,   372.259216,   23.7407856,           0.
      5,   375.087646,   24.9123592,           0.
      6,   376.259216,   27.7407856,           0.
      7,   375.087646,   30.5692139,           0.
      8,   372.259216,   31.7407856,           0.
      9,   24.9123592,   30.5692139,           0.
     10,   23.7407856,   27.7407856,           0.
     11,   24.9123592,   24.9123592,           0.
     12,   27.7407856,   23.7407856,           0.
     13,   30.5692139,   24.9123592,           0.
     14,   31.7407856,   27.7407856,           0.
     15,   30.5692139,   30.5692139,           0.
     16,   27.7407856,   31.7407856,           0.
     17,   30.5692139,   369.430786,           0.
     18,   31.7407856,   372.259216,           0.
     19,   30.5692139,   375.087646,           0.
     20,   27.7407856,   376.259216,           0.
** ... 685 like lines cut
*Element, type=S3
 1, 654, 122, 146
 2, 670, 282, 271
 3, 192, 112, 646
 4, 138, 123, 116
 5, 126, 644, 147
 6, 151,   5, 139
 7, 175,  56, 174
 8, 130, 650, 139
 9, 168,  74,  73
10,  34,  55, 172
11,  30, 125, 643
12, 171,  76,  75
13, 164, 661, 140
14, 645,  38,  37
15, 175,  57,  56
16, 181, 113, 178
17, 327, 240, 660
18, 669, 322, 265
19, 663, 157, 660
20, 454, 453, 409
** ... 20 like lines cut
*Element, type=S4R
 41, 151, 168,   6,   5
 42, 139,   5,   4, 130
 43, 118, 148,   3,   2
 44, 118, 169, 191, 148
 45, 144,  11,  10, 123
 46, 146, 122,  12,  11
 47,   9, 116, 123,  10
 48, 639, 133, 159, 214
 49, 641, 129, 646, 152
 50, 117, 640, 136, 166
 51, 153,  15,  14, 121
 52, 219, 277, 335, 281
 53, 206, 268, 209, 665
 54, 124,  14,  13, 145
 55, 135,   8, 114, 160
 56, 122, 145,  13,  12
 57, 137,   7,   6, 168
 58, 118,   2, 119, 140
 59, 102, 101, 276, 233
 60,  59,  58, 223, 218
** ... 612 like lines cut
*Nset, nset=_PickedSet2, internal, generate
   1,  705,    1
*Elset, elset=_PickedSet2, internal, generate
   1,  672,    1
** Section: tole
*Shell Section, elset=_PickedSet2, material=acier
1., 5
*End Part
**  
**
** ASSEMBLY
**
*Assembly, name=Assembly
**  
*Instance, name=plaque-1, part=plaque
*End Instance
**  
*Node
      1,   27.7407856,   372.259216,           0.
*Node
      2,   27.7407856,   27.7407856,           0.
*Node
      3,   372.259216,   27.7407856,           0.
*Node
      4,   372.259216,   372.259216,           0.
*Nset, nset=_PickedSet9, internal
 1,
*Nset, nset=_PickedSet11, internal
 2,
*Nset, nset=_PickedSet13, internal
 3,
*Nset, nset=_PickedSet15, internal
 4,
*Nset, nset=_PickedSet16, internal, generate
 1,  4,  1
*Elset, elset=__PickedSurf8_E3, internal, instance=plaque-1
  65, 654
*Elset, elset=__PickedSurf8_E1, internal, instance=plaque-1
 66,
*Elset, elset=__PickedSurf8_E2, internal, instance=plaque-1
  67, 139, 140
*Elset, elset=__PickedSurf8_E4, internal, instance=plaque-1
 135, 136
*Surface, type=ELEMENT, name=_PickedSurf8, internal
__PickedSurf8_E3, E3
__PickedSurf8_E1, E1
__PickedSurf8_E2, E2
__PickedSurf8_E4, E4
*Elset, elset=__PickedSurf10_E2, internal, instance=plaque-1
 45, 51, 54
*Elset, elset=__PickedSurf10_E3, internal, instance=plaque-1
 46, 56
*Elset, elset=__PickedSurf10_E4, internal, instance=plaque-1
  47, 120
*Elset, elset=__PickedSurf10_E1, internal, instance=plaque-1
 137,
*Surface, type=ELEMENT, name=_PickedSurf10, internal
__PickedSurf10_E2, E2
__PickedSurf10_E3, E3
__PickedSurf10_E4, E4
__PickedSurf10_E1, E1
*Elset, elset=__PickedSurf12_E3, internal, instance=plaque-1
  41,  43, 102
*Elset, elset=__PickedSurf12_E2, internal, instance=plaque-1
  42,  57, 134, 147
*Elset, elset=__PickedSurf12_E4, internal, instance=plaque-1
 79,
*Surface, type=ELEMENT, name=_PickedSurf12, internal
__PickedSurf12_E3, E3
__PickedSurf12_E2, E2
__PickedSurf12_E4, E4
*Elset, elset=__PickedSurf14_E3, internal, instance=plaque-1
 62,
*Elset, elset=__PickedSurf14_E4, internal, instance=plaque-1
 70, 73
*Elset, elset=__PickedSurf14_E1, internal, instance=plaque-1
  71,  72, 145
*Elset, elset=__PickedSurf14_E2, internal, instance=plaque-1
  75, 133
*Surface, type=ELEMENT, name=_PickedSurf14, internal
__PickedSurf14_E3, E3
__PickedSurf14_E4, E4
__PickedSurf14_E2, E2
__PickedSurf14_E1, E1
** Constraint: Constraint-1
*Coupling, constraint name=Constraint-1, ref node=_PickedSet9, surface=_PickedSurf8
*Kinematic
** Constraint: Constraint-2
*Coupling, constraint name=Constraint-2, ref node=_PickedSet11, surface=_PickedSurf10
*Kinematic
** Constraint: Constraint-3
*Coupling, constraint name=Constraint-3, ref node=_PickedSet13, surface=_PickedSurf12
*Kinematic
** Constraint: Constraint-4
*Coupling, constraint name=Constraint-4, ref node=_PickedSet15, surface=_PickedSurf14
*Kinematic
*End Assembly
** 
** MATERIALS
** 
*Material, name=acier
*Density
 7.86e-09,
*Elastic
210000., 0.26
** ----------------------------------------------------------------
** 
** STEP: analyse_modale
** 
*Step, name=analyse_modale, nlgeom=NO, perturbation
*Frequency, eigensolver=Lanczos, sim, acoustic coupling=on, normalization=mass
, , 500., , , 
** 
** BOUNDARY CONDITIONS
** 
** Name: blocage Type: Symmetry/Antisymmetry/Encastre
*Boundary
_PickedSet16, ENCASTRE
** 
** OUTPUT REQUESTS
** 
*Restart, write, frequency=0
** 
** FIELD OUTPUT: F-Output-1
** 
*Output, field
*Node Output, variable=PRESELECT
** 
** HISTORY OUTPUT: H-Output-1
** 
*Output, history
*Energy Output, variable=ALL
*End Step
