*Heading
** Job name: vibration Model name: Model-1
** Generated by: Abaqus/CAE 2025
*Preprint, echo=NO, model=NO, history=NO, contact=NO
**
** PARTS
**
*Part, name=plaque
*Node
      1,    380.68634,   19.3136616,           0.
      2,   379.514771,   16.4852352,           0.
      3,    380.68634,   13.6568079,           0.
      4,   383.514771,   12.4852352,           0.
      5,   386.343201,   13.6568079,           0.
      6,   387.514771,   16.4852352,           0.
      7,   386.343201,   19.3136616,           0.
      8,   383.514771,   20.4852352,           0.
      9,   13.6568079,   19.3136616,           0.
     10,   12.4852352,   16.4852352,           0.
     11,   13.6568079,   13.6568079,           0.
     12,   16.4852352,   12.4852352,           0.
     13,   19.3136616,   13.6568079,           0.
     14,   20.4852352,   16.4852352,           0.
     15,   19.3136616,   19.3136616,           0.
     16,   16.4852352,   20.4852352,           0.
     17,   19.3136616,    380.68634,           0.
     18,   20.4852352,   383.514771,           0.
     19,   19.3136616,   386.343201,           0.
     20,   16.4852352,   387.514771,           0.
** ... 655 like lines cut
*Element, type=S3
 1, 173, 124, 122
 2, 599,  11,  10
 3, 113,   8,   7
 4, 142, 630, 123
 5, 158, 126,  93
 6, 126,  29,  28
 7, 164,  94, 149
 8, 136,  57,  56
 9, 623,  75,  36
10, 139, 621,  35
11, 620, 175, 130
12, 173,  55,  54
13,  55, 630,  34
14, 607, 158, 162
15, 616, 177, 171
16, 163, 608, 619
17, 164,  95,  94
18, 598, 616, 167
19, 653, 494, 495
20, 357, 280, 239
** ... 22 like lines cut
*Element, type=S4R
 43,   6,   5, 119, 137
 44, 137, 119, 144, 615
 45, 595,   4, 132, 596
 46, 117, 152, 145, 132
 47,  12,  11, 123, 141
 48, 142, 123,  11, 599
 49, 599, 149,  94, 142
 50, 597, 167,  16,  15
 51, 175, 169, 115, 603
 52, 114,  24, 115, 166
 53, 616, 598, 170, 177
 54, 312, 271, 272, 352
 55, 230, 184,  40,  39
 56, 135,   8, 113, 155
 57,  55, 173, 122, 141
 58, 174, 116, 614,  74
 59,   2, 120, 117,   3
 60, 201, 200, 254, 256
 61, 288, 636, 349, 348
 62, 162, 151, 125, 607
** ... 581 like lines cut
*Nset, nset=_PickedSet2, internal, generate
   1,  675,    1
*Elset, elset=_PickedSet2, internal, generate
   1,  643,    1
** Section: tole
*Shell Section, elset=_PickedSet2, material=acier
1., 5
*End Part
**  
**
** ASSEMBLY
**
*Assembly, name=Assembly
**  
*Instance, name=plaque-1, part=plaque
*End Instance
**  
*Node
      1,   16.4852352,   383.514771,           0.
*Node
      2,   16.4852352,   16.4852352,           0.
*Node
      3,   383.514771,   16.4852352,           0.
*Node
      4,   383.514771,   383.514771,           0.
*Nset, nset=_PickedSet9, internal
 1,
*Nset, nset=_PickedSet11, internal
 2,
*Nset, nset=_PickedSet13, internal
 3,
*Nset, nset=_PickedSet15, internal
 4,
*Nset, nset=_PickedSet16, internal, generate
 1,  4,  1
*Elset, elset=__PickedSurf8_E3, internal, instance=plaque-1
 30, 65
*Elset, elset=__PickedSurf8_E1, internal, instance=plaque-1
  66, 136
*Elset, elset=__PickedSurf8_E2, internal, instance=plaque-1
  68, 104, 144
*Elset, elset=__PickedSurf8_E4, internal, instance=plaque-1
 105,
*Surface, type=ELEMENT, name=_PickedSurf8, internal
__PickedSurf8_E3, E3
__PickedSurf8_E1, E1
__PickedSurf8_E2, E2
__PickedSurf8_E4, E4
*Elset, elset=__PickedSurf10_E2, internal, instance=plaque-1
   2, 145, 147, 148
*Elset, elset=__PickedSurf10_E3, internal, instance=plaque-1
 29, 50, 86
*Elset, elset=__PickedSurf10_E1, internal, instance=plaque-1
 47,
*Surface, type=ELEMENT, name=_PickedSurf10, internal
__PickedSurf10_E2, E2
__PickedSurf10_E3, E3
__PickedSurf10_E1, E1
*Elset, elset=__PickedSurf12_E2, internal, instance=plaque-1
   3, 140, 154, 156
*Elset, elset=__PickedSurf12_E1, internal, instance=plaque-1
 43,
*Elset, elset=__PickedSurf12_E4, internal, instance=plaque-1
  59, 101
*Elset, elset=__PickedSurf12_E3, internal, instance=plaque-1
 102,
*Surface, type=ELEMENT, name=_PickedSurf12, internal
__PickedSurf12_E2, E2
__PickedSurf12_E1, E1
__PickedSurf12_E4, E4
__PickedSurf12_E3, E3
*Elset, elset=__PickedSurf14_E2, internal, instance=plaque-1
   6,  70,  71,  72, 149, 153
*Elset, elset=__PickedSurf14_E1, internal, instance=plaque-1
 133, 150
*Surface, type=ELEMENT, name=_PickedSurf14, internal
__PickedSurf14_E2, E2
__PickedSurf14_E1, E1
** Constraint: Constraint-1
*Coupling, constraint name=Constraint-1, ref node=_PickedSet9, surface=_PickedSurf8
*Kinematic
** Constraint: Constraint-2
*Coupling, constraint name=Constraint-2, ref node=_PickedSet11, surface=_PickedSurf10
*Kinematic
** Constraint: Constraint-3
*Coupling, constraint name=Constraint-3, ref node=_PickedSet13, surface=_PickedSurf12
*Kinematic
** Constraint: Constraint-4
*Coupling, constraint name=Constraint-4, ref node=_PickedSet15, surface=_PickedSurf14
*Kinematic
*End Assembly
** 
** MATERIALS
** 
*Material, name=acier
*Density
 7.86e-09,
*Elastic
210000., 0.26
** ----------------------------------------------------------------
** 
** STEP: analyse_modale
** 
*Step, name=analyse_modale, nlgeom=NO, perturbation
*Frequency, eigensolver=Lanczos, sim, acoustic coupling=on, normalization=mass
, , 500., , , 
** 
** BOUNDARY CONDITIONS
** 
** Name: blocage Type: Symmetry/Antisymmetry/Encastre
*Boundary
_PickedSet16, ENCASTRE
** 
** OUTPUT REQUESTS
** 
*Restart, write, frequency=0
** 
** FIELD OUTPUT: F-Output-1
** 
*Output, field
*Node Output, variable=PRESELECT
** 
** HISTORY OUTPUT: H-Output-1
** 
*Output, history
*Energy Output, variable=ALL
*End Step
