*Heading
** Job name: vibration Model name: Model-1
** Generated by: Abaqus/CAE 2025
*Preprint, echo=NO, model=NO, history=NO, contact=NO
**
** PARTS
**
*Part, name=plaque
*Node
      1,   358.787476,   41.2125359,           0.
      2,   357.615906,   38.3841057,           0.
      3,   358.787476,   35.5556793,           0.
      4,   361.615906,   34.3841057,           0.
      5,   364.444305,   35.5556793,           0.
      6,   365.615906,   38.3841057,           0.
      7,   364.444305,   41.2125359,           0.
      8,   361.615906,   42.3841057,           0.
      9,   35.5556793,   41.2125359,           0.
     10,   34.3841057,   38.3841057,           0.
     11,   35.5556793,   35.5556793,           0.
     12,   38.3841057,   34.3841057,           0.
     13,   41.2125359,   35.5556793,           0.
     14,   42.3841057,   38.3841057,           0.
     15,   41.2125359,   41.2125359,           0.
     16,   38.3841057,   42.3841057,           0.
     17,   41.2125359,   358.787476,           0.
     18,   42.3841057,   361.615906,           0.
     19,   41.2125359,   364.444305,           0.
     20,   38.3841057,   365.615906,           0.
** ... 878 like lines cut
*Element, type=S3
 1, 143, 121, 142
 2, 807, 161, 154
 3, 179, 114, 151
 4, 149,   6,   5
 5, 197, 130, 136
 6, 193, 179, 138
 7, 793, 254, 223
 8, 778, 167, 137
 9, 774, 192, 174
10, 181, 797, 135
11, 192, 774, 197
12, 793, 223, 183
13, 284, 298, 238
14, 835, 413, 415
15, 418, 370, 379
16, 406, 829, 434
17, 426, 397, 403
18, 548, 447, 474
19, 867, 448, 476
20, 878, 515, 548
** ... 14 like lines cut
*Element, type=S4R
 35,   6, 149, 139, 116
 36,   4, 136, 130,   5
 37, 145,   3,   2, 117
 38, 801, 212, 173, 142
 39, 144,  11, 122, 791
 40, 142, 121, 144, 801
 41, 135, 168, 141, 775
 42, 151,  23,  22, 127
 43, 127,  22, 128, 138
 44, 119, 776,  15,  14
 45, 225, 150, 119, 157
 46, 239, 240, 198, 221
 47, 248, 218, 799, 263
 48, 120,  14,  13, 143
 49, 119,  14, 120, 157
 50,   2,   1, 153, 117
 51, 367, 407, 438, 773
 52, 124,  30,  29, 146
 53, 123,  30, 124, 160
 54, 146,  29,  28, 125
** ... 808 like lines cut
*Nset, nset=_PickedSet2, internal, generate
   1,  898,    1
*Elset, elset=_PickedSet2, internal, generate
   1,  862,    1
** Section: tole
*Shell Section, elset=_PickedSet2, material=acier
1., 5
*End Part
**  
**
** ASSEMBLY
**
*Assembly, name=Assembly
**  
*Instance, name=plaque-1, part=plaque
*End Instance
**  
*Node
      1,   38.3841057,   361.615906,           0.
*Node
      2,   38.3841057,   38.3841057,           0.
*Node
      3,   361.615906,   38.3841057,           0.
*Node
      4,   361.615906,   361.615906,           0.
*Nset, nset=_PickedSet9, internal
 1,
*Nset, nset=_PickedSet11, internal
 2,
*Nset, nset=_PickedSet13, internal
 3,
*Nset, nset=_PickedSet15, internal
 4,
*Nset, nset=_PickedSet16, internal, generate
 1,  4,  1
*Elset, elset=__PickedSurf8_E2, internal, instance=plaque-1
  42, 122
*Elset, elset=__PickedSurf8_E4, internal, instance=plaque-1
 57, 94, 96
*Elset, elset=__PickedSurf8_E3, internal, instance=plaque-1
 59,
*Elset, elset=__PickedSurf8_E1, internal, instance=plaque-1
  92, 139
*Surface, type=ELEMENT, name=_PickedSurf8, internal
__PickedSurf8_E2, E2
__PickedSurf8_E4, E4
__PickedSurf8_E3, E3
__PickedSurf8_E1, E1
*Elset, elset=__PickedSurf10_E3, internal, instance=plaque-1
 44, 78
*Elset, elset=__PickedSurf10_E2, internal, instance=plaque-1
  48, 108, 123, 131
*Elset, elset=__PickedSurf10_E1, internal, instance=plaque-1
 130, 829
*Surface, type=ELEMENT, name=_PickedSurf10, internal
__PickedSurf10_E3, E3
__PickedSurf10_E2, E2
__PickedSurf10_E1, E1
*Elset, elset=__PickedSurf12_E2, internal, instance=plaque-1
   4,  37,  90, 120, 127
*Elset, elset=__PickedSurf12_E4, internal, instance=plaque-1
 36,
*Elset, elset=__PickedSurf12_E1, internal, instance=plaque-1
  50, 138
*Surface, type=ELEMENT, name=_PickedSurf12, internal
__PickedSurf12_E2, E2
__PickedSurf12_E4, E4
__PickedSurf12_E1, E1
*Elset, elset=__PickedSurf14_E2, internal, instance=plaque-1
 52, 54, 80
*Elset, elset=__PickedSurf14_E4, internal, instance=plaque-1
  64,  66, 106, 134, 135
*Surface, type=ELEMENT, name=_PickedSurf14, internal
__PickedSurf14_E2, E2
__PickedSurf14_E4, E4
** Constraint: Constraint-1
*Coupling, constraint name=Constraint-1, ref node=_PickedSet9, surface=_PickedSurf8
*Kinematic
** Constraint: Constraint-2
*Coupling, constraint name=Constraint-2, ref node=_PickedSet11, surface=_PickedSurf10
*Kinematic
** Constraint: Constraint-3
*Coupling, constraint name=Constraint-3, ref node=_PickedSet13, surface=_PickedSurf12
*Kinematic
** Constraint: Constraint-4
*Coupling, constraint name=Constraint-4, ref node=_PickedSet15, surface=_PickedSurf14
*Kinematic
*End Assembly
** 
** MATERIALS
** 
*Material, name=acier
*Density
 7.86e-09,
*Elastic
210000., 0.26
** ----------------------------------------------------------------
** 
** STEP: analyse_modale
** 
*Step, name=analyse_modale, nlgeom=NO, perturbation
*Frequency, eigensolver=Lanczos, sim, acoustic coupling=on, normalization=mass
, , 500., , , 
** 
** BOUNDARY CONDITIONS
** 
** Name: blocage Type: Symmetry/Antisymmetry/Encastre
*Boundary
_PickedSet16, ENCASTRE
** 
** OUTPUT REQUESTS
** 
*Restart, write, frequency=0
** 
** FIELD OUTPUT: F-Output-1
** 
*Output, field
*Node Output, variable=PRESELECT
** 
** HISTORY OUTPUT: H-Output-1
** 
*Output, history
*Energy Output, variable=ALL
*End Step
