*Heading
** Job name: vibration Model name: Model-1
** Generated by: Abaqus/CAE 2025
*Preprint, echo=NO, model=NO, history=NO, contact=NO
**
** PARTS
**
*Part, name=plaque
*Node
      1,   375.953583,   24.0464211,           0.
      2,   374.782013,   21.2179928,           0.
      3,   375.953583,   18.3895664,           0.
      4,   378.782013,   17.2179928,           0.
      5,   381.610443,   18.3895664,           0.
      6,   382.782013,   21.2179928,           0.
      7,   381.610443,   24.0464211,           0.
      8,   378.782013,   25.2179928,           0.
      9,   18.3895664,   24.0464211,           0.
     10,   17.2179928,   21.2179928,           0.
     11,   18.3895664,   18.3895664,           0.
     12,   21.2179928,   17.2179928,           0.
     13,   24.0464211,   18.3895664,           0.
     14,   25.2179928,   21.2179928,           0.
     15,   24.0464211,   24.0464211,           0.
     16,   21.2179928,   25.2179928,           0.
     17,   24.0464211,   375.953583,           0.
     18,   25.2179928,   378.782013,           0.
     19,   24.0464211,   381.610443,           0.
     20,   21.2179928,   382.782013,           0.
** ... 659 like lines cut
*Element, type=S3
 1,  93, 137,  35
 2, 152, 615, 176
 3, 134, 606,   3
 4, 610,  14, 120
 5, 154, 156, 122
 6,  32, 615,  25
 7, 126,   5,   4
 8,  75, 115, 613
 9, 138, 152,  56
10, 123, 138,  56
11, 635, 125, 126
12, 118, 167, 609
13, 631, 175, 157
14, 638,  55,  54
15, 152,  57,  56
16, 153,  95,  94
17, 163, 136, 619
18, 154,  93,  92
19, 629, 170, 159
20,  55, 167,  34
** ... 18 like lines cut
*Element, type=S4R
 39, 632, 113, 141,  74
 40,  74, 141, 125,  33
 41, 126,   4,   3, 606
 42, 114, 607, 150,   2
 43,  55, 155, 117, 167
 44, 119,  10,   9, 608
 45,  16, 128, 177, 608
 46, 612,  23,  22, 127
 47, 142,  15,  14, 610
 48, 142, 159, 148, 128
 49, 330, 367, 374, 307
 50, 175, 245, 173, 162
 51, 120,  14,  13, 139
 52, 130, 144,   1,   8
 53,  12, 117, 116,  13
 54, 114,   2,   1, 144
 55, 198, 197, 250, 254
 56, 242, 169, 641, 351
 57, 133,  19,  18, 614
 58, 115,  20,  19, 613
** ... 587 like lines cut
*Nset, nset=_PickedSet2, internal, generate
   1,  679,    1
*Elset, elset=_PickedSet2, internal, generate
   1,  645,    1
** Section: tole
*Shell Section, elset=_PickedSet2, material=acier
1., 5
*End Part
**  
**
** ASSEMBLY
**
*Assembly, name=Assembly
**  
*Instance, name=plaque-1, part=plaque
*End Instance
**  
*Node
      1,   21.2179928,   378.782013,           0.
*Node
      2,   21.2179928,   21.2179928,           0.
*Node
      3,   378.782013,   21.2179928,           0.
*Node
      4,   378.782013,   378.782013,           0.
*Nset, nset=_PickedSet9, internal
 1,
*Nset, nset=_PickedSet11, internal
 2,
*Nset, nset=_PickedSet13, internal
 3,
*Nset, nset=_PickedSet15, internal
 4,
*Nset, nset=_PickedSet16, internal, generate
 1,  4,  1
*Elset, elset=__PickedSurf8_E2, internal, instance=plaque-1
 46, 57, 58, 61
*Elset, elset=__PickedSurf8_E1, internal, instance=plaque-1
  59,  62, 132, 148
*Surface, type=ELEMENT, name=_PickedSurf8, internal
__PickedSurf8_E2, E2
__PickedSurf8_E1, E1
*Elset, elset=__PickedSurf10_E3, internal, instance=plaque-1
  33, 135
*Elset, elset=__PickedSurf10_E2, internal, instance=plaque-1
 44, 47, 51
*Elset, elset=__PickedSurf10_E4, internal, instance=plaque-1
  53, 114
*Elset, elset=__PickedSurf10_E1, internal, instance=plaque-1
 136,
*Surface, type=ELEMENT, name=_PickedSurf10, internal
__PickedSurf10_E3, E3
__PickedSurf10_E2, E2
__PickedSurf10_E4, E4
__PickedSurf10_E1, E1
*Elset, elset=__PickedSurf12_E2, internal, instance=plaque-1
   7,  41,  54,  67, 129, 145
*Elset, elset=__PickedSurf12_E3, internal, instance=plaque-1
 52,
*Elset, elset=__PickedSurf12_E4, internal, instance=plaque-1
 96,
*Surface, type=ELEMENT, name=_PickedSurf12, internal
__PickedSurf12_E2, E2
__PickedSurf12_E3, E3
__PickedSurf12_E4, E4
*Elset, elset=__PickedSurf14_E3, internal, instance=plaque-1
 6,
*Elset, elset=__PickedSurf14_E2, internal, instance=plaque-1
  64, 140, 141, 151
*Elset, elset=__PickedSurf14_E1, internal, instance=plaque-1
  65, 142
*Elset, elset=__PickedSurf14_E4, internal, instance=plaque-1
 112,
*Surface, type=ELEMENT, name=_PickedSurf14, internal
__PickedSurf14_E3, E3
__PickedSurf14_E2, E2
__PickedSurf14_E4, E4
__PickedSurf14_E1, E1
** Constraint: Constraint-1
*Coupling, constraint name=Constraint-1, ref node=_PickedSet9, surface=_PickedSurf8
*Kinematic
** Constraint: Constraint-2
*Coupling, constraint name=Constraint-2, ref node=_PickedSet11, surface=_PickedSurf10
*Kinematic
** Constraint: Constraint-3
*Coupling, constraint name=Constraint-3, ref node=_PickedSet13, surface=_PickedSurf12
*Kinematic
** Constraint: Constraint-4
*Coupling, constraint name=Constraint-4, ref node=_PickedSet15, surface=_PickedSurf14
*Kinematic
*End Assembly
** 
** MATERIALS
** 
*Material, name=acier
*Density
 7.86e-09,
*Elastic
210000., 0.26
** ----------------------------------------------------------------
** 
** STEP: analyse_modale
** 
*Step, name=analyse_modale, nlgeom=NO, perturbation
*Frequency, eigensolver=Lanczos, sim, acoustic coupling=on, normalization=mass
, , 500., , , 
** 
** BOUNDARY CONDITIONS
** 
** Name: blocage Type: Symmetry/Antisymmetry/Encastre
*Boundary
_PickedSet16, ENCASTRE
** 
** OUTPUT REQUESTS
** 
*Restart, write, frequency=0
** 
** FIELD OUTPUT: F-Output-1
** 
*Output, field
*Node Output, variable=PRESELECT
** 
** HISTORY OUTPUT: H-Output-1
** 
*Output, history
*Energy Output, variable=ALL
*End Step
