*Heading
** Job name: vibration Model name: Model-1
** Generated by: Abaqus/CAE 2025
*Preprint, echo=NO, model=NO, history=NO, contact=NO
**
** PARTS
**
*Part, name=plaque
*Node
      1,   386.973572,   13.0264406,           0.
      2,   385.801971,   10.1980133,           0.
      3,   386.973572,   7.36958647,           0.
      4,   389.801971,   6.19801378,           0.
      5,   392.630402,   7.36958647,           0.
      6,   393.801971,   10.1980133,           0.
      7,   392.630402,   13.0264406,           0.
      8,   389.801971,   14.1980133,           0.
      9,   7.36958647,   13.0264406,           0.
     10,   6.19801378,   10.1980133,           0.
     11,   7.36958647,   7.36958647,           0.
     12,   10.1980133,   6.19801378,           0.
     13,   13.0264406,   7.36958647,           0.
     14,   14.1980133,   10.1980133,           0.
     15,   13.0264406,   13.0264406,           0.
     16,   10.1980133,   14.1980133,           0.
     17,   13.0264406,   386.973572,           0.
     18,   14.1980133,   389.801971,           0.
     19,   13.0264406,   392.630402,           0.
     20,   10.1980133,   393.801971,           0.
** ... 615 like lines cut
*Element, type=S3
 1, 604, 575, 143
 2, 590, 582, 138
 3, 138,  21,  20
 4, 153,  36, 144
 5, 144,  36, 112
 6, 124,   8,   7
 7, 587, 121, 155
 8, 135,  14,  13
 9,   6, 572,   7
10, 573,   3, 133
11,  55, 135, 576
12, 578,  19, 136
13, 585, 137,  33
14, 140,  12,  11
15, 141,  28,  27
16, 174, 588, 127
17, 592,  55,  54
18, 165, 112, 111
19, 601, 156, 139
20, 218, 165, 111
** ... 38 like lines cut
*Element, type=S4R
 59, 124, 572, 585,  74
 60, 158, 143, 575,  33
 61,   5,   4, 143, 158
 62,   3,   2, 121, 133
 63, 591, 576,  12, 140
 64, 156,  11,  10, 139
 65, 601,  34, 602, 156
 66,  16, 120, 132,   9
 67, 579,  23,  22, 144
 68, 115, 117,  15,  14
 69, 130, 117, 115, 160
 70, 100, 250, 242, 101
 71, 171, 222, 164, 603
 72, 124,  74, 159, 571
 73,   1, 113, 589,   2
 74, 226, 102, 101, 242
 75, 162, 607, 151, 126
 76,  29, 134, 122,  30
 77,  19,  18, 123, 136
 78,  18,  17, 118, 147
** ... 533 like lines cut
*Nset, nset=_PickedSet2, internal, generate
   1,  635,    1
*Elset, elset=_PickedSet2, internal, generate
   1,  611,    1
** Section: tole
*Shell Section, elset=_PickedSet2, material=acier
1., 5
*End Part
**  
**
** ASSEMBLY
**
*Assembly, name=Assembly
**  
*Instance, name=plaque-1, part=plaque
*End Instance
**  
*Node
      1,   10.1980133,   389.801971,           0.
*Node
      2,   10.1980133,   10.1980133,           0.
*Node
      3,   389.801971,   10.1980133,           0.
*Node
      4,   389.801971,   389.801971,           0.
*Nset, nset=_PickedSet9, internal
 1,
*Nset, nset=_PickedSet11, internal
 2,
*Nset, nset=_PickedSet13, internal
 3,
*Nset, nset=_PickedSet15, internal
 4,
*Nset, nset=_PickedSet16, internal, generate
 1,  4,  1
*Elset, elset=__PickedSurf8_E2, internal, instance=plaque-1
   3,  67, 153, 178
*Elset, elset=__PickedSurf8_E1, internal, instance=plaque-1
  77,  78, 163, 174
*Surface, type=ELEMENT, name=_PickedSurf8, internal
__PickedSurf8_E2, E2
__PickedSurf8_E1, E1
*Elset, elset=__PickedSurf10_E2, internal, instance=plaque-1
   8,  14,  64, 596
*Elset, elset=__PickedSurf10_E4, internal, instance=plaque-1
  66, 155, 169
*Elset, elset=__PickedSurf10_E3, internal, instance=plaque-1
 68,
*Surface, type=ELEMENT, name=_PickedSurf10, internal
__PickedSurf10_E2, E2
__PickedSurf10_E4, E4
__PickedSurf10_E3, E3
*Elset, elset=__PickedSurf12_E2, internal, instance=plaque-1
   6, 148
*Elset, elset=__PickedSurf12_E3, internal, instance=plaque-1
 9,
*Elset, elset=__PickedSurf12_E1, internal, instance=plaque-1
  61,  62, 177
*Elset, elset=__PickedSurf12_E4, internal, instance=plaque-1
  73, 172
*Surface, type=ELEMENT, name=_PickedSurf12, internal
__PickedSurf12_E2, E2
__PickedSurf12_E3, E3
__PickedSurf12_E4, E4
__PickedSurf12_E1, E1
*Elset, elset=__PickedSurf14_E2, internal, instance=plaque-1
 15, 85
*Elset, elset=__PickedSurf14_E4, internal, instance=plaque-1
  76, 162
*Elset, elset=__PickedSurf14_E3, internal, instance=plaque-1, generate
 80,  84,   2
*Elset, elset=__PickedSurf14_E1, internal, instance=plaque-1
 170,
*Surface, type=ELEMENT, name=_PickedSurf14, internal
__PickedSurf14_E2, E2
__PickedSurf14_E4, E4
__PickedSurf14_E3, E3
__PickedSurf14_E1, E1
** Constraint: Constraint-1
*Coupling, constraint name=Constraint-1, ref node=_PickedSet9, surface=_PickedSurf8
*Kinematic
** Constraint: Constraint-2
*Coupling, constraint name=Constraint-2, ref node=_PickedSet11, surface=_PickedSurf10
*Kinematic
** Constraint: Constraint-3
*Coupling, constraint name=Constraint-3, ref node=_PickedSet13, surface=_PickedSurf12
*Kinematic
** Constraint: Constraint-4
*Coupling, constraint name=Constraint-4, ref node=_PickedSet15, surface=_PickedSurf14
*Kinematic
*End Assembly
** 
** MATERIALS
** 
*Material, name=acier
*Density
 7.86e-09,
*Elastic
210000., 0.26
** ----------------------------------------------------------------
** 
** STEP: analyse_modale
** 
*Step, name=analyse_modale, nlgeom=NO, perturbation
*Frequency, eigensolver=Lanczos, sim, acoustic coupling=on, normalization=mass
, , 500., , , 
** 
** BOUNDARY CONDITIONS
** 
** Name: blocage Type: Symmetry/Antisymmetry/Encastre
*Boundary
_PickedSet16, ENCASTRE
** 
** OUTPUT REQUESTS
** 
*Restart, write, frequency=0
** 
** FIELD OUTPUT: F-Output-1
** 
*Output, field
*Node Output, variable=PRESELECT
** 
** HISTORY OUTPUT: H-Output-1
** 
*Output, history
*Energy Output, variable=ALL
*End Step
