*Heading
** Job name: vibration Model name: Model-1
** Generated by: Abaqus/CAE 2025
*Preprint, echo=NO, model=NO, history=NO, contact=NO
**
** PARTS
**
*Part, name=plaque
*Node
      1,   352.858856,   47.1411476,           0.
      2,   351.687286,   44.3127174,           0.
      3,   352.858856,   41.4842911,           0.
      4,   355.687286,   40.3127174,           0.
      5,   358.515717,   41.4842911,           0.
      6,   359.687286,   44.3127174,           0.
      7,   358.515717,   47.1411476,           0.
      8,   355.687286,   48.3127174,           0.
      9,   41.4842911,   47.1411476,           0.
     10,   40.3127174,   44.3127174,           0.
     11,   41.4842911,   41.4842911,           0.
     12,   44.3127174,   40.3127174,           0.
     13,   47.1411476,   41.4842911,           0.
     14,   48.3127174,   44.3127174,           0.
     15,   47.1411476,   47.1411476,           0.
     16,   44.3127174,   48.3127174,           0.
     17,   47.1411476,   352.858856,           0.
     18,   48.3127174,   355.687286,           0.
     19,   47.1411476,   358.515717,           0.
     20,   44.3127174,   359.687286,           0.
** ... 1071 like lines cut
*Element, type=S3
 1,  151,  930,  121
 2,    2,  117,  928
 3,  169,  117,  161
 4,  180,  179,  151
 5,  184,  162,  125
 6,  186,  134,  160
 7,  185,  159,  122
 8,  953,  931,  120
 9,  216,  183,  201
10,    5,  129,    6
11,  289,  285,  180
12,  962,  246,  945
13,  171,  144,  118
14,  941,  262,   54
15,  133,  147,  935
16,  219,  278,  979
17,  327,  254,  276
18,  949,  218,  187
19,  981,  978,  979
20,  976,  973,  974
** ... 24 like lines cut
*Element, type=S4R
  45,  203,  143,  153,  960
  46,  928,  130,    3,    2
  47,  193,  948,  204,  208
  48,   11,  121,  930,  120
  49,  929,    9,   16,  167
  50,  933,   23,   22,  131
  51,  122,  159,   15,   14
  52,  170,  114,  933,  158
  53,  235,  248,  185,  222
  54,  113,  962,  945,  165
  55,  123,   14,   13,  932
  56,  137,    8,  113,  165
  57,  123,  148,  122,   14
  58,  120,  931,   12,   11
  59,  143,    6,  129,  153
  60,  169,  944,  928,  117
  61,  126,   30,   29,  937
  62,  126,  145,  125,   30
  63,  127,  174,  937,   29
  64,  132,  155,   19,   18
** ... 996 like lines cut
*Nset, nset=_PickedSet2, internal, generate
    1,  1091,     1
*Elset, elset=_PickedSet2, internal, generate
    1,  1060,     1
** Section: tole
*Shell Section, elset=_PickedSet2, material=acier
1., 5
*End Part
**  
**
** ASSEMBLY
**
*Assembly, name=Assembly
**  
*Instance, name=plaque-1, part=plaque
*End Instance
**  
*Node
      1,   44.3127174,   355.687286,           0.
*Node
      2,   44.3127174,   44.3127174,           0.
*Node
      3,   355.687286,   44.3127174,           0.
*Node
      4,   355.687286,   355.687286,           0.
*Nset, nset=_PickedSet9, internal
 1,
*Nset, nset=_PickedSet11, internal
 2,
*Nset, nset=_PickedSet13, internal
 3,
*Nset, nset=_PickedSet15, internal
 4,
*Nset, nset=_PickedSet16, internal, generate
 1,  4,  1
*Elset, elset=__PickedSurf8_E2, internal, instance=plaque-1
  50, 127, 136
*Elset, elset=__PickedSurf8_E3, internal, instance=plaque-1, generate
 64,  68,   2
*Elset, elset=__PickedSurf8_E4, internal, instance=plaque-1
 102,
*Elset, elset=__PickedSurf8_E1, internal, instance=plaque-1
 148,
*Surface, type=ELEMENT, name=_PickedSurf8, internal
__PickedSurf8_E2, E2
__PickedSurf8_E3, E3
__PickedSurf8_E4, E4
__PickedSurf8_E1, E1
*Elset, elset=__PickedSurf10_E2, internal, instance=plaque-1
  49,  55, 129, 137, 139
*Elset, elset=__PickedSurf10_E3, internal, instance=plaque-1
 51, 58
*Elset, elset=__PickedSurf10_E4, internal, instance=plaque-1
 113,
*Surface, type=ELEMENT, name=_PickedSurf10, internal
__PickedSurf10_E2, E2
__PickedSurf10_E3, E3
__PickedSurf10_E4, E4
*Elset, elset=__PickedSurf12_E3, internal, instance=plaque-1
 10, 46, 71, 79
*Elset, elset=__PickedSurf12_E2, internal, instance=plaque-1
  76, 126, 131
*Elset, elset=__PickedSurf12_E4, internal, instance=plaque-1
 133,
*Surface, type=ELEMENT, name=_PickedSurf12, internal
__PickedSurf12_E3, E3
__PickedSurf12_E2, E2
__PickedSurf12_E4, E4
*Elset, elset=__PickedSurf14_E2, internal, instance=plaque-1
  61,  74, 141, 145
*Elset, elset=__PickedSurf14_E3, internal, instance=plaque-1
 75,
*Elset, elset=__PickedSurf14_E4, internal, instance=plaque-1
 89, 92
*Elset, elset=__PickedSurf14_E1, internal, instance=plaque-1
 143,
*Surface, type=ELEMENT, name=_PickedSurf14, internal
__PickedSurf14_E2, E2
__PickedSurf14_E3, E3
__PickedSurf14_E4, E4
__PickedSurf14_E1, E1
** Constraint: Constraint-1
*Coupling, constraint name=Constraint-1, ref node=_PickedSet9, surface=_PickedSurf8
*Kinematic
** Constraint: Constraint-2
*Coupling, constraint name=Constraint-2, ref node=_PickedSet11, surface=_PickedSurf10
*Kinematic
** Constraint: Constraint-3
*Coupling, constraint name=Constraint-3, ref node=_PickedSet13, surface=_PickedSurf12
*Kinematic
** Constraint: Constraint-4
*Coupling, constraint name=Constraint-4, ref node=_PickedSet15, surface=_PickedSurf14
*Kinematic
*End Assembly
** 
** MATERIALS
** 
*Material, name=acier
*Density
 7.86e-09,
*Elastic
210000., 0.26
** ----------------------------------------------------------------
** 
** STEP: analyse_modale
** 
*Step, name=analyse_modale, nlgeom=NO, perturbation
*Frequency, eigensolver=Lanczos, sim, acoustic coupling=on, normalization=mass
, , 500., , , 
** 
** BOUNDARY CONDITIONS
** 
** Name: blocage Type: Symmetry/Antisymmetry/Encastre
*Boundary
_PickedSet16, ENCASTRE
** 
** OUTPUT REQUESTS
** 
*Restart, write, frequency=0
** 
** FIELD OUTPUT: F-Output-1
** 
*Output, field
*Node Output, variable=PRESELECT
** 
** HISTORY OUTPUT: H-Output-1
** 
*Output, history
*Energy Output, variable=ALL
*End Step
