*Heading
** Job name: vibration Model name: Model-1
** Generated by: Abaqus/CAE 2025
*Preprint, echo=NO, model=NO, history=NO, contact=NO
**
** PARTS
**
*Part, name=plaque
*Node
      1,   348.006348,   51.9936485,           0.
      2,   346.834778,   49.1652222,           0.
      3,   348.006348,    46.336792,           0.
      4,   350.834778,   45.1652222,           0.
      5,   353.663208,    46.336792,           0.
      6,   354.834778,   49.1652222,           0.
      7,   353.663208,   51.9936485,           0.
      8,   350.834778,   53.1652222,           0.
      9,    46.336792,   51.9936485,           0.
     10,   45.1652222,   49.1652222,           0.
     11,    46.336792,    46.336792,           0.
     12,   49.1652222,   45.1652222,           0.
     13,   51.9936485,    46.336792,           0.
     14,   53.1652222,   49.1652222,           0.
     15,   51.9936485,   51.9936485,           0.
     16,   49.1652222,   53.1652222,           0.
     17,   51.9936485,   348.006348,           0.
     18,   53.1652222,   350.834778,           0.
     19,   51.9936485,   353.663208,           0.
     20,   49.1652222,   354.834778,           0.
** ... 1278 like lines cut
*Element, type=S3
 1, 1114,  125,  156
 2,  148, 1108,  135
 3,  235,  298,  246
 4,  178,  246,  205
 5, 1111,  199,  114
 6,  156,  211, 1136
 7,  192,  326,  219
 8, 1150,  212,  262
 9,  301,  282,  231
10,  289,  260,  240
11, 1162,  252,  307
12,  273, 1165,  227
13, 1165,  305,  247
14, 1164,  315,  326
15, 1150,  262,  288
16,  349,  293,  298
17,  315, 1147,  302
18,  962,  357,  385
19, 1209,  427, 1188
20, 1171,  360,  333
** ... 28 like lines cut
*Element, type=S4R
  49,  117, 1109,  176,  150
  50,  117,    5,  134, 1109
  51,  122,  162,    3,    2
  52, 1139,  183, 1110,  119
  53,  243, 1174, 1155,  220
  54,  124, 1115, 1113,   11
  55, 1133,  123, 1113,  159
  56,  125,    9,  142,  164
  57,  191,  167,  136, 1144
  58,  140,   23,  136,  167
  59,  114,   16,   15, 1111
  60,  257,  279,  236, 1154
  61,  168,  140, 1146,  204
  62,  272,  226,  250, 1160
  63,    8,    7,  141,  171
  64,  428, 1184,  359,  418
  65,  320,  332,  359, 1167
  66,  127,   12,  123,  157
  67,    6, 1107,  118,    7
  68,  119,    1,  116,  143
** ... 1201 like lines cut
*Nset, nset=_PickedSet2, internal, generate
    1,  1298,     1
*Elset, elset=_PickedSet2, internal, generate
    1,  1269,     1
** Section: tole
*Shell Section, elset=_PickedSet2, material=acier
1., 5
*End Part
**  
**
** ASSEMBLY
**
*Assembly, name=Assembly
**  
*Instance, name=plaque-1, part=plaque
*End Instance
**  
*Node
      1,   49.1652222,   350.834778,           0.
*Node
      2,   49.1652222,   49.1652222,           0.
*Node
      3,   350.834778,   49.1652222,           0.
*Node
      4,   350.834778,   350.834778,           0.
*Nset, nset=_PickedSet9, internal
 1,
*Nset, nset=_PickedSet11, internal
 2,
*Nset, nset=_PickedSet13, internal
 3,
*Nset, nset=_PickedSet15, internal
 4,
*Nset, nset=_PickedSet16, internal, generate
 1,  4,  1
*Elset, elset=__PickedSurf8_E4, internal, instance=plaque-1
  75, 140, 180
*Elset, elset=__PickedSurf8_E1, internal, instance=plaque-1
  80, 176, 178
*Elset, elset=__PickedSurf8_E2, internal, instance=plaque-1
 151, 175
*Surface, type=ELEMENT, name=_PickedSurf8, internal
__PickedSurf8_E4, E4
__PickedSurf8_E1, E1
__PickedSurf8_E2, E2
*Elset, elset=__PickedSurf10_E2, internal, instance=plaque-1
  59, 155, 159, 161
*Elset, elset=__PickedSurf10_E3, internal, instance=plaque-1
 103,
*Elset, elset=__PickedSurf10_E4, internal, instance=plaque-1
 143, 157
*Elset, elset=__PickedSurf10_E1, internal, instance=plaque-1
 156,
*Surface, type=ELEMENT, name=_PickedSurf10, internal
__PickedSurf10_E2, E2
__PickedSurf10_E3, E3
__PickedSurf10_E4, E4
__PickedSurf10_E1, E1
*Elset, elset=__PickedSurf12_E3, internal, instance=plaque-1
 51, 93
*Elset, elset=__PickedSurf12_E1, internal, instance=plaque-1
 63,
*Elset, elset=__PickedSurf12_E4, internal, instance=plaque-1
  67,  91, 115, 147
*Elset, elset=__PickedSurf12_E2, internal, instance=plaque-1
 148,
*Surface, type=ELEMENT, name=_PickedSurf12, internal
__PickedSurf12_E3, E3
__PickedSurf12_E1, E1
__PickedSurf12_E4, E4
__PickedSurf12_E2, E2
*Elset, elset=__PickedSurf14_E2, internal, instance=plaque-1
  86,  88, 164, 170, 171
*Elset, elset=__PickedSurf14_E4, internal, instance=plaque-1
 145, 168
*Elset, elset=__PickedSurf14_E1, internal, instance=plaque-1
 166,
*Surface, type=ELEMENT, name=_PickedSurf14, internal
__PickedSurf14_E2, E2
__PickedSurf14_E4, E4
__PickedSurf14_E1, E1
** Constraint: Constraint-1
*Coupling, constraint name=Constraint-1, ref node=_PickedSet9, surface=_PickedSurf8
*Kinematic
** Constraint: Constraint-2
*Coupling, constraint name=Constraint-2, ref node=_PickedSet11, surface=_PickedSurf10
*Kinematic
** Constraint: Constraint-3
*Coupling, constraint name=Constraint-3, ref node=_PickedSet13, surface=_PickedSurf12
*Kinematic
** Constraint: Constraint-4
*Coupling, constraint name=Constraint-4, ref node=_PickedSet15, surface=_PickedSurf14
*Kinematic
*End Assembly
** 
** MATERIALS
** 
*Material, name=acier
*Density
 7.86e-09,
*Elastic
210000., 0.26
** ----------------------------------------------------------------
** 
** STEP: analyse_modale
** 
*Step, name=analyse_modale, nlgeom=NO, perturbation
*Frequency, eigensolver=Lanczos, sim, acoustic coupling=on, normalization=mass
, , 500., , , 
** 
** BOUNDARY CONDITIONS
** 
** Name: blocage Type: Symmetry/Antisymmetry/Encastre
*Boundary
_PickedSet16, ENCASTRE
** 
** OUTPUT REQUESTS
** 
*Restart, write, frequency=0
** 
** FIELD OUTPUT: F-Output-1
** 
*Output, field
*Node Output, variable=PRESELECT
** 
** HISTORY OUTPUT: H-Output-1
** 
*Output, history
*Energy Output, variable=ALL
*End Step
