*Heading
** Job name: vibration Model name: Model-1
** Generated by: Abaqus/CAE 2025
*Preprint, echo=NO, model=NO, history=NO, contact=NO
**
** PARTS
**
*Part, name=plaque
*Node
      1,   352.691132,   47.3088608,           0.
      2,   351.519562,   44.4804344,           0.
      3,   352.691132,   41.6520081,           0.
      4,   355.519562,   40.4804344,           0.
      5,   358.347992,   41.6520081,           0.
      6,   359.519562,   44.4804344,           0.
      7,   358.347992,   47.3088608,           0.
      8,   355.519562,   48.4804344,           0.
      9,   41.6520081,   47.3088608,           0.
     10,   40.4804344,   44.4804344,           0.
     11,   41.6520081,   41.6520081,           0.
     12,   44.4804344,   40.4804344,           0.
     13,   47.3088608,   41.6520081,           0.
     14,   48.4804344,   44.4804344,           0.
     15,   47.3088608,   47.3088608,           0.
     16,   44.4804344,   48.4804344,           0.
     17,   47.3088608,   352.691132,           0.
     18,   48.4804344,   355.519562,           0.
     19,   47.3088608,   358.347992,           0.
     20,   44.4804344,   359.519562,           0.
** ... 1157 like lines cut
*Element, type=S3
 1, 1057,  168,  157
 2,  186,  123,   12
 3,  933, 1061,  888
 4,  120,  188,  153
 5,  932, 1050,  877
 6,  213,  159,  181
 7,  884,  260,  183
 8,  884,  183,  206
 9, 1078, 1065,  172
10,  123,  186,  152
11, 1054,  192, 1051
12,  217,  236,  174
13,  247,  229,  213
14, 1082,  311,  219
15,  317,  321,  323
16,  305,  235,  276
17,  410,  367,  382
18, 1119,  430,  380
19,  420,  388,  401
20,  406,  423,  359
** ... 20 like lines cut
*Element, type=S4R
  41,  208, 1017,  183,  260
  42,  115,  155,  884,  206
  43,  115,    5,  129,  155
  44,    3, 1019,  130,    4
  45,    3,    2, 1014, 1019
  46,  154,  123,  152,  189
  47,  167,  143,    9,   16
  48,  203, 1020,  173,  226
  49, 1021,   23,   22,  132
  50,  121,  162,   15,   14
  51,  246,  256,  230, 1067
  52,  173,  134,  140, 1056
  53,  242,  231,  193,  170
  54,  245,  228,  204, 1038
  55,  122,   14,   13,  154
  56,  137,    8,    7, 1015
  57,  122,  151,  121,   14
  58,  115, 1016,    6,    5
  59,  117,    1, 1013,  175
  60,  286,  313,  310,  298
** ... 1084 like lines cut
*Nset, nset=_PickedSet2, internal, generate
    1,  1177,     1
*Elset, elset=_PickedSet2, internal, generate
    1,  1144,     1
** Section: tole
*Shell Section, elset=_PickedSet2, material=acier
1., 5
*End Part
**  
**
** ASSEMBLY
**
*Assembly, name=Assembly
**  
*Instance, name=plaque-1, part=plaque
*End Instance
**  
*Node
      1,   44.4804344,   355.519562,           0.
*Node
      2,   44.4804344,   44.4804344,           0.
*Node
      3,   355.519562,   44.4804344,           0.
*Node
      4,   355.519562,   355.519562,           0.
*Nset, nset=_PickedSet9, internal
 1,
*Nset, nset=_PickedSet11, internal
 2,
*Nset, nset=_PickedSet13, internal
 3,
*Nset, nset=_PickedSet15, internal
 4,
*Nset, nset=_PickedSet16, internal, generate
 1,  4,  1
*Elset, elset=__PickedSurf8_E2, internal, instance=plaque-1
  49, 143, 161, 162
*Elset, elset=__PickedSurf8_E4, internal, instance=plaque-1
 65, 67
*Elset, elset=__PickedSurf8_E1, internal, instance=plaque-1
 142, 159
*Surface, type=ELEMENT, name=_PickedSurf8, internal
__PickedSurf8_E2, E2
__PickedSurf8_E4, E4
__PickedSurf8_E1, E1
*Elset, elset=__PickedSurf10_E3, internal, instance=plaque-1
 47, 50, 88
*Elset, elset=__PickedSurf10_E2, internal, instance=plaque-1
  55, 134, 146
*Elset, elset=__PickedSurf10_E4, internal, instance=plaque-1
 119, 145
*Surface, type=ELEMENT, name=_PickedSurf10, internal
__PickedSurf10_E3, E3
__PickedSurf10_E2, E2
__PickedSurf10_E4, E4
*Elset, elset=__PickedSurf12_E4, internal, instance=plaque-1
  44, 139
*Elset, elset=__PickedSurf12_E1, internal, instance=plaque-1
  45, 131, 137
*Elset, elset=__PickedSurf12_E2, internal, instance=plaque-1
  56, 135
*Elset, elset=__PickedSurf12_E3, internal, instance=plaque-1
 58,
*Surface, type=ELEMENT, name=_PickedSurf12, internal
__PickedSurf12_E4, E4
__PickedSurf12_E1, E1
__PickedSurf12_E2, E2
__PickedSurf12_E3, E3
*Elset, elset=__PickedSurf14_E2, internal, instance=plaque-1
  61,  75, 147, 149, 153, 155
*Elset, elset=__PickedSurf14_E1, internal, instance=plaque-1
 151, 154
*Surface, type=ELEMENT, name=_PickedSurf14, internal
__PickedSurf14_E2, E2
__PickedSurf14_E1, E1
** Constraint: Constraint-1
*Coupling, constraint name=Constraint-1, ref node=_PickedSet9, surface=_PickedSurf8
*Kinematic
** Constraint: Constraint-2
*Coupling, constraint name=Constraint-2, ref node=_PickedSet11, surface=_PickedSurf10
*Kinematic
** Constraint: Constraint-3
*Coupling, constraint name=Constraint-3, ref node=_PickedSet13, surface=_PickedSurf12
*Kinematic
** Constraint: Constraint-4
*Coupling, constraint name=Constraint-4, ref node=_PickedSet15, surface=_PickedSurf14
*Kinematic
*End Assembly
** 
** MATERIALS
** 
*Material, name=acier
*Density
 7.86e-09,
*Elastic
210000., 0.26
** ----------------------------------------------------------------
** 
** STEP: analyse_modale
** 
*Step, name=analyse_modale, nlgeom=NO, perturbation
*Frequency, eigensolver=Lanczos, sim, acoustic coupling=on, normalization=mass
, , 500., , , 
** 
** BOUNDARY CONDITIONS
** 
** Name: blocage Type: Symmetry/Antisymmetry/Encastre
*Boundary
_PickedSet16, ENCASTRE
** 
** OUTPUT REQUESTS
** 
*Restart, write, frequency=0
** 
** FIELD OUTPUT: F-Output-1
** 
*Output, field
*Node Output, variable=PRESELECT
** 
** HISTORY OUTPUT: H-Output-1
** 
*Output, history
*Energy Output, variable=ALL
*End Step
