*Heading
** Job name: vibration Model name: Model-1
** Generated by: Abaqus/CAE 2025
*Preprint, echo=NO, model=NO, history=NO, contact=NO
**
** PARTS
**
*Part, name=plaque
*Node
      1,   368.339996,   31.6599979,           0.
      2,   367.168427,   28.8315716,           0.
      3,   368.339996,   26.0031433,           0.
      4,   371.168427,   24.8315716,           0.
      5,   373.996857,   26.0031433,           0.
      6,   375.168427,   28.8315716,           0.
      7,   373.996857,   31.6599979,           0.
      8,   371.168427,   32.8315697,           0.
      9,   26.0031433,   31.6599979,           0.
     10,   24.8315716,   28.8315716,           0.
     11,   26.0031433,   26.0031433,           0.
     12,   28.8315716,   24.8315716,           0.
     13,   31.6599979,   26.0031433,           0.
     14,   32.8315697,   28.8315716,           0.
     15,   31.6599979,   31.6599979,           0.
     16,   28.8315716,   32.8315697,           0.
     17,   31.6599979,   368.339996,           0.
     18,   32.8315697,   371.168427,           0.
     19,   31.6599979,   373.996857,           0.
     20,   28.8315716,   375.168427,           0.
** ... 746 like lines cut
*Element, type=S3
 1, 130, 675, 175
 2, 694, 696, 695
 3, 696, 694, 174
 4, 669, 166, 134
 5, 694, 117, 175
 6, 125,  10,   9
 7, 125, 150, 124
 8, 183,  94, 179
 9, 142,  27,  26
10, 163, 115, 156
11, 174,  74,  73
12, 179, 698, 148
13, 125, 124,  10
14, 673, 181,  75
15, 198, 164, 186
16, 676,  92, 173
17, 696, 174, 159
18, 694,  74, 174
19, 175, 117, 130
20, 681, 180, 153
** ... 36 like lines cut
*Element, type=S4R
 57, 130, 117,   5,   4
 58, 131, 118, 154, 675
 59, 141, 178, 154, 118
 60, 123, 688, 698, 122
 61, 688, 150, 148, 698
 62, 124, 123,  11,  10
 63, 148, 150, 125, 665
 64, 165,  16, 115, 668
 65, 132, 160,  24,  23
 66, 115,  16,  15, 156
 67, 156, 667, 190, 163
 68, 196, 233, 195, 192
 69, 202, 217, 220, 219
 70, 156,  15, 121, 667
 71,   8,   7, 136, 113
 72, 126,  13,  12, 122
 73, 674, 126, 122, 698
 74, 116, 136,   7,   6
 75, 113, 140,   1,   8
 76, 307, 284, 286, 348
** ... 665 like lines cut
*Nset, nset=_PickedSet2, internal, generate
   1,  766,    1
*Elset, elset=_PickedSet2, internal, generate
   1,  741,    1
** Section: tole
*Shell Section, elset=_PickedSet2, material=acier
1., 5
*End Part
**  
**
** ASSEMBLY
**
*Assembly, name=Assembly
**  
*Instance, name=plaque-1, part=plaque
*End Instance
**  
*Node
      1,   28.8315716,   371.168427,           0.
*Node
      2,   28.8315716,   28.8315716,           0.
*Node
      3,   371.168427,   28.8315716,           0.
*Node
      4,   371.168427,   371.168427,           0.
*Nset, nset=_PickedSet9, internal
 1,
*Nset, nset=_PickedSet11, internal
 2,
*Nset, nset=_PickedSet13, internal
 3,
*Nset, nset=_PickedSet15, internal
 4,
*Nset, nset=_PickedSet16, internal, generate
 1,  4,  1
*Elset, elset=__PickedSurf8_E2, internal, instance=plaque-1
  54,  81, 155, 167, 170
*Elset, elset=__PickedSurf8_E3, internal, instance=plaque-1
 65, 82
*Elset, elset=__PickedSurf8_E4, internal, instance=plaque-1
 121,
*Surface, type=ELEMENT, name=_PickedSurf8, internal
__PickedSurf8_E2, E2
__PickedSurf8_E3, E3
__PickedSurf8_E4, E4
*Elset, elset=__PickedSurf10_E2, internal, instance=plaque-1
   6,  66,  72, 151, 160
*Elset, elset=__PickedSurf10_E3, internal, instance=plaque-1
 62,
*Elset, elset=__PickedSurf10_E4, internal, instance=plaque-1
 157,
*Elset, elset=__PickedSurf10_E1, internal, instance=plaque-1
 158,
*Surface, type=ELEMENT, name=_PickedSurf10, internal
__PickedSurf10_E2, E2
__PickedSurf10_E3, E3
__PickedSurf10_E4, E4
__PickedSurf10_E1, E1
*Elset, elset=__PickedSurf12_E3, internal, instance=plaque-1
 57, 74, 75, 90
*Elset, elset=__PickedSurf12_E1, internal, instance=plaque-1
  71, 152, 153
*Elset, elset=__PickedSurf12_E2, internal, instance=plaque-1
 154,
*Surface, type=ELEMENT, name=_PickedSurf12, internal
__PickedSurf12_E3, E3
__PickedSurf12_E1, E1
__PickedSurf12_E2, E2
*Elset, elset=__PickedSurf14_E2, internal, instance=plaque-1
   9,  87,  89, 108
*Elset, elset=__PickedSurf14_E4, internal, instance=plaque-1
 79,
*Elset, elset=__PickedSurf14_E3, internal, instance=plaque-1
 84, 85
*Elset, elset=__PickedSurf14_E1, internal, instance=plaque-1
 150,
*Surface, type=ELEMENT, name=_PickedSurf14, internal
__PickedSurf14_E2, E2
__PickedSurf14_E4, E4
__PickedSurf14_E3, E3
__PickedSurf14_E1, E1
** Constraint: Constraint-1
*Coupling, constraint name=Constraint-1, ref node=_PickedSet9, surface=_PickedSurf8
*Kinematic
** Constraint: Constraint-2
*Coupling, constraint name=Constraint-2, ref node=_PickedSet11, surface=_PickedSurf10
*Kinematic
** Constraint: Constraint-3
*Coupling, constraint name=Constraint-3, ref node=_PickedSet13, surface=_PickedSurf12
*Kinematic
** Constraint: Constraint-4
*Coupling, constraint name=Constraint-4, ref node=_PickedSet15, surface=_PickedSurf14
*Kinematic
*End Assembly
** 
** MATERIALS
** 
*Material, name=acier
*Density
 7.86e-09,
*Elastic
210000., 0.26
** ----------------------------------------------------------------
** 
** STEP: analyse_modale
** 
*Step, name=analyse_modale, nlgeom=NO, perturbation
*Frequency, eigensolver=Lanczos, sim, acoustic coupling=on, normalization=mass
, , 500., , , 
** 
** BOUNDARY CONDITIONS
** 
** Name: blocage Type: Symmetry/Antisymmetry/Encastre
*Boundary
_PickedSet16, ENCASTRE
** 
** OUTPUT REQUESTS
** 
*Restart, write, frequency=0
** 
** FIELD OUTPUT: F-Output-1
** 
*Output, field
*Node Output, variable=PRESELECT
** 
** HISTORY OUTPUT: H-Output-1
** 
*Output, history
*Energy Output, variable=ALL
*End Step
