*Heading
** Job name: vibration Model name: Model-1
** Generated by: Abaqus/CAE 2025
*Preprint, echo=NO, model=NO, history=NO, contact=NO
**
** PARTS
**
*Part, name=plaque
*Node
      1,    364.01358,    35.986412,           0.
      2,    362.84201,   33.1579857,           0.
      3,    364.01358,   30.3295593,           0.
      4,    366.84201,   29.1579857,           0.
      5,   369.670441,   30.3295593,           0.
      6,    370.84201,   33.1579857,           0.
      7,   369.670441,    35.986412,           0.
      8,    366.84201,   37.1579857,           0.
      9,   30.3295593,    35.986412,           0.
     10,   29.1579857,   33.1579857,           0.
     11,   30.3295593,   30.3295593,           0.
     12,   33.1579857,   29.1579857,           0.
     13,    35.986412,   30.3295593,           0.
     14,   37.1579857,   33.1579857,           0.
     15,    35.986412,    35.986412,           0.
     16,   33.1579857,   37.1579857,           0.
     17,    35.986412,    364.01358,           0.
     18,   37.1579857,    366.84201,           0.
     19,    35.986412,   369.670441,           0.
     20,   33.1579857,    370.84201,           0.
** ... 728 like lines cut
*Element, type=S3
 1,  20, 159,  21
 2,  27, 155,  28
 3, 659, 139, 113
 4, 666, 165, 129
 5, 689, 175, 146
 6, 689, 155, 148
 7, 671, 125, 158
 8, 157, 143, 124
 9, 689, 201, 175
10, 205, 198, 157
11, 161, 181, 123
12, 277, 171, 190
13, 332, 277, 219
14, 537, 475, 501
15, 726, 644, 721
16, 635, 616, 615
17, 748, 648, 638
18, 663, 118, 167
19, 668, 120, 141
20, 146, 175, 121
21, 691, 696, 692
22, 704, 187, 697
*Element, type=S4R
 23, 198, 180, 143, 157
 24, 125,   3, 114, 158
 25, 114,   3,   2, 661
 26, 202, 153, 204,  54
 27,   9, 117, 151,  10
 28,   9,  16, 662, 117
 29, 136,  23,  22, 126
 30,  15, 663, 130,  16
 31, 136, 172, 163, 664
 32, 210, 213, 215, 224
 33, 385, 698, 391, 344
 34,  14,  13, 150, 118
 35,   8, 132, 139, 659
 36, 150,  13, 119, 153
 37, 183, 152,  12,  11
 38, 124, 143,   6,   5
 39,   1,   8, 659, 658
 40, 404, 365, 368, 410
 41, 346, 317, 255, 285
 42, 688, 168, 134, 122
** ... 664 like lines cut
*Nset, nset=_PickedSet2, internal, generate
   1,  748,    1
*Elset, elset=_PickedSet2, internal, generate
   1,  706,    1
** Section: tole
*Shell Section, elset=_PickedSet2, material=acier
1., 5
*End Part
**  
**
** ASSEMBLY
**
*Assembly, name=Assembly
**  
*Instance, name=plaque-1, part=plaque
*End Instance
**  
*Node
      1,   33.1579857,    366.84201,           0.
*Node
      2,   33.1579857,   33.1579857,           0.
*Node
      3,    366.84201,   33.1579857,           0.
*Node
      4,    366.84201,    366.84201,           0.
*Nset, nset=_PickedSet9, internal
 1,
*Nset, nset=_PickedSet11, internal
 2,
*Nset, nset=_PickedSet13, internal
 3,
*Nset, nset=_PickedSet15, internal
 4,
*Nset, nset=_PickedSet16, internal, generate
 1,  4,  1
*Elset, elset=__PickedSurf8_E3, internal, instance=plaque-1
   1,  46,  48, 112, 132
*Elset, elset=__PickedSurf8_E2, internal, instance=plaque-1
  29, 119, 135
*Surface, type=ELEMENT, name=_PickedSurf8, internal
__PickedSurf8_E3, E3
__PickedSurf8_E2, E2
*Elset, elset=__PickedSurf10_E4, internal, instance=plaque-1
 27, 30
*Elset, elset=__PickedSurf10_E1, internal, instance=plaque-1
  28,  34, 120, 122, 124
*Elset, elset=__PickedSurf10_E3, internal, instance=plaque-1
 37,
*Surface, type=ELEMENT, name=_PickedSurf10, internal
__PickedSurf10_E4, E4
__PickedSurf10_E1, E1
__PickedSurf10_E3, E3
*Elset, elset=__PickedSurf12_E2, internal, instance=plaque-1
  25,  54, 114
*Elset, elset=__PickedSurf12_E3, internal, instance=plaque-1
 38, 57
*Elset, elset=__PickedSurf12_E1, internal, instance=plaque-1
 39,
*Elset, elset=__PickedSurf12_E4, internal, instance=plaque-1
 59, 84
*Surface, type=ELEMENT, name=_PickedSurf12, internal
__PickedSurf12_E2, E2
__PickedSurf12_E3, E3
__PickedSurf12_E4, E4
__PickedSurf12_E1, E1
*Elset, elset=__PickedSurf14_E3, internal, instance=plaque-1
  2, 51, 72
*Elset, elset=__PickedSurf14_E2, internal, instance=plaque-1
 43,
*Elset, elset=__PickedSurf14_E4, internal, instance=plaque-1
  49, 130
*Elset, elset=__PickedSurf14_E1, internal, instance=plaque-1
  53, 126
*Surface, type=ELEMENT, name=_PickedSurf14, internal
__PickedSurf14_E3, E3
__PickedSurf14_E2, E2
__PickedSurf14_E4, E4
__PickedSurf14_E1, E1
** Constraint: Constraint-1
*Coupling, constraint name=Constraint-1, ref node=_PickedSet9, surface=_PickedSurf8
*Kinematic
** Constraint: Constraint-2
*Coupling, constraint name=Constraint-2, ref node=_PickedSet11, surface=_PickedSurf10
*Kinematic
** Constraint: Constraint-3
*Coupling, constraint name=Constraint-3, ref node=_PickedSet13, surface=_PickedSurf12
*Kinematic
** Constraint: Constraint-4
*Coupling, constraint name=Constraint-4, ref node=_PickedSet15, surface=_PickedSurf14
*Kinematic
*End Assembly
** 
** MATERIALS
** 
*Material, name=acier
*Density
 7.86e-09,
*Elastic
210000., 0.26
** ----------------------------------------------------------------
** 
** STEP: analyse_modale
** 
*Step, name=analyse_modale, nlgeom=NO, perturbation
*Frequency, eigensolver=Lanczos, sim, acoustic coupling=on, normalization=mass
, , 500., , , 
** 
** BOUNDARY CONDITIONS
** 
** Name: blocage Type: Symmetry/Antisymmetry/Encastre
*Boundary
_PickedSet16, ENCASTRE
** 
** OUTPUT REQUESTS
** 
*Restart, write, frequency=0
** 
** FIELD OUTPUT: F-Output-1
** 
*Output, field
*Node Output, variable=PRESELECT
** 
** HISTORY OUTPUT: H-Output-1
** 
*Output, history
*Energy Output, variable=ALL
*End Step
