*Heading
** Job name: vibration Model name: Model-1
** Generated by: Abaqus/CAE 2025
*Preprint, echo=NO, model=NO, history=NO, contact=NO
**
** PARTS
**
*Part, name=plaque
*Node
      1,   358.199524,   41.8004646,           0.
      2,   357.027954,   38.9720383,           0.
      3,   358.199524,   36.1436119,           0.
      4,   361.027954,   34.9720383,           0.
      5,   363.856384,   36.1436119,           0.
      6,   365.027954,   38.9720383,           0.
      7,   363.856384,   41.8004646,           0.
      8,   361.027954,   42.9720383,           0.
      9,   36.1436119,   41.8004646,           0.
     10,   34.9720383,   38.9720383,           0.
     11,   36.1436119,   36.1436119,           0.
     12,   38.9720383,   34.9720383,           0.
     13,   41.8004646,   36.1436119,           0.
     14,   42.9720383,   38.9720383,           0.
     15,   41.8004646,   41.8004646,           0.
     16,   38.9720383,   42.9720383,           0.
     17,   41.8004646,   358.199524,           0.
     18,   42.9720383,   361.027954,           0.
     19,   41.8004646,   363.856384,           0.
     20,   38.9720383,   365.027954,           0.
** ... 861 like lines cut
*Element, type=S3
 1, 123, 779,  31
 2, 780,  29, 124
 3, 170, 130, 139
 4, 160,   7, 116
 5, 771,   4, 127
 6, 202, 186, 147
 7, 185, 124, 143
 8, 173, 797, 197
 9, 295, 793, 205
10, 155, 210, 127
11, 150, 200, 180
12, 129, 182, 145
13, 217, 205, 183
14, 351, 262, 281
15, 798, 216, 193
16, 115, 183, 151
17, 336, 222, 239
18, 344, 257, 271
19, 798, 193, 175
20, 225, 268, 275
** ... 22 like lines cut
*Element, type=S4R
 43, 153, 772,   6,   5
 44, 116,   7,   6, 146
 45, 771, 153,   5,   4
 46, 155,   3,   2, 120
 47, 784, 117, 773, 137
 48, 149,  13,  12, 152
 49, 793, 151, 183, 205
 50, 775, 128,  23,  22
 51, 122, 158,  15,  14
 52, 164, 213, 225, 163
 53, 223, 256, 213, 211
 54, 365, 241, 222, 336
 55, 166,  14,  13, 149
 56,   1, 773, 117,   2
 57, 242, 409, 292, 228
 58, 142,  30,  29, 780
 59, 119, 148, 178, 182
 60, 119,  20, 118, 148
 61, 182, 178, 294, 345
 62,  22,  21, 156, 129
** ... 787 like lines cut
*Nset, nset=_PickedSet2, internal, generate
   1,  881,    1
*Elset, elset=_PickedSet2, internal, generate
   1,  849,    1
** Section: tole
*Shell Section, elset=_PickedSet2, material=acier
1., 5
*End Part
**  
**
** ASSEMBLY
**
*Assembly, name=Assembly
**  
*Instance, name=plaque-1, part=plaque
*End Instance
**  
*Node
      1,   38.9720383,   361.027954,           0.
*Node
      2,   38.9720383,   38.9720383,           0.
*Node
      3,   361.027954,   38.9720383,           0.
*Node
      4,   361.027954,   361.027954,           0.
*Nset, nset=_PickedSet9, internal
 1,
*Nset, nset=_PickedSet11, internal
 2,
*Nset, nset=_PickedSet13, internal
 3,
*Nset, nset=_PickedSet15, internal
 4,
*Nset, nset=_PickedSet16, internal, generate
 1,  4,  1
*Elset, elset=__PickedSurf8_E3, internal, instance=plaque-1
 50,
*Elset, elset=__PickedSurf8_E1, internal, instance=plaque-1
  62,  63, 135, 151
*Elset, elset=__PickedSurf8_E4, internal, instance=plaque-1
 65,
*Elset, elset=__PickedSurf8_E2, internal, instance=plaque-1
 133, 134
*Surface, type=ELEMENT, name=_PickedSurf8, internal
__PickedSurf8_E3, E3
__PickedSurf8_E1, E1
__PickedSurf8_E4, E4
__PickedSurf8_E2, E2
*Elset, elset=__PickedSurf10_E2, internal, instance=plaque-1
  48,  55, 119, 136, 137, 138
*Elset, elset=__PickedSurf10_E3, internal, instance=plaque-1
 51,
*Elset, elset=__PickedSurf10_E4, internal, instance=plaque-1
 121,
*Surface, type=ELEMENT, name=_PickedSurf10, internal
__PickedSurf10_E2, E2
__PickedSurf10_E3, E3
__PickedSurf10_E4, E4
*Elset, elset=__PickedSurf12_E3, internal, instance=plaque-1
 43, 45
*Elset, elset=__PickedSurf12_E2, internal, instance=plaque-1
  44,  46, 147, 155
*Elset, elset=__PickedSurf12_E4, internal, instance=plaque-1
 56, 76
*Surface, type=ELEMENT, name=_PickedSurf12, internal
__PickedSurf12_E3, E3
__PickedSurf12_E2, E2
__PickedSurf12_E4, E4
*Elset, elset=__PickedSurf14_E2, internal, instance=plaque-1
  58,  71,  72, 141, 145
*Elset, elset=__PickedSurf14_E1, internal, instance=plaque-1
 67,
*Elset, elset=__PickedSurf14_E3, internal, instance=plaque-1
 69,
*Elset, elset=__PickedSurf14_E4, internal, instance=plaque-1
 112,
*Surface, type=ELEMENT, name=_PickedSurf14, internal
__PickedSurf14_E2, E2
__PickedSurf14_E1, E1
__PickedSurf14_E4, E4
__PickedSurf14_E3, E3
** Constraint: Constraint-1
*Coupling, constraint name=Constraint-1, ref node=_PickedSet9, surface=_PickedSurf8
*Kinematic
** Constraint: Constraint-2
*Coupling, constraint name=Constraint-2, ref node=_PickedSet11, surface=_PickedSurf10
*Kinematic
** Constraint: Constraint-3
*Coupling, constraint name=Constraint-3, ref node=_PickedSet13, surface=_PickedSurf12
*Kinematic
** Constraint: Constraint-4
*Coupling, constraint name=Constraint-4, ref node=_PickedSet15, surface=_PickedSurf14
*Kinematic
*End Assembly
** 
** MATERIALS
** 
*Material, name=acier
*Density
 7.86e-09,
*Elastic
210000., 0.26
** ----------------------------------------------------------------
** 
** STEP: analyse_modale
** 
*Step, name=analyse_modale, nlgeom=NO, perturbation
*Frequency, eigensolver=Lanczos, sim, acoustic coupling=on, normalization=mass
, , 500., , , 
** 
** BOUNDARY CONDITIONS
** 
** Name: blocage Type: Symmetry/Antisymmetry/Encastre
*Boundary
_PickedSet16, ENCASTRE
** 
** OUTPUT REQUESTS
** 
*Restart, write, frequency=0
** 
** FIELD OUTPUT: F-Output-1
** 
*Output, field
*Node Output, variable=PRESELECT
** 
** HISTORY OUTPUT: H-Output-1
** 
*Output, history
*Energy Output, variable=ALL
*End Step
