*Heading
** Job name: vibration Model name: Model-1
** Generated by: Abaqus/CAE 2025
*Preprint, echo=NO, model=NO, history=NO, contact=NO
**
** PARTS
**
*Part, name=plaque
*Node
      1,   392.084991,   7.91502237,           0.
      2,   390.913391,   5.08659554,           0.
      3,   392.084991,   2.25816822,           0.
      4,   394.913391,   1.08659542,           0.
      5,   397.741821,   2.25816822,           0.
      6,   398.913391,   5.08659554,           0.
      7,   397.741821,   7.91502237,           0.
      8,   394.913391,   9.08659554,           0.
      9,   2.25816822,   7.91502237,           0.
     10,   1.08659542,   5.08659554,           0.
     11,   2.25816822,   2.25816822,           0.
     12,   5.08659554,   1.08659542,           0.
     13,   7.91502237,   2.25816822,           0.
     14,   9.08659554,   5.08659554,           0.
     15,   7.91502237,   7.91502237,           0.
     16,   5.08659554,   9.08659554,           0.
     17,   7.91502237,   392.084991,           0.
     18,   9.08659554,   394.913391,           0.
     19,   7.91502237,   397.741821,           0.
     20,   5.08659554,   398.913391,           0.
** ... 613 like lines cut
*Element, type=S3
 1,  34,  12, 555
 2, 555,  12,  11
 3, 574, 573,   3
 4,  35,  28, 563
 5,  36,  20, 559
 6, 570, 557, 112
 7, 563,  28,  27
 8,   3, 550,   4
 9, 606, 584, 585
10,  55,  13,  12
11,  93,  29,  28
12, 558,  23,  22
13, 549,   7,   6
14, 595, 153, 138
15, 323, 317, 256
16, 411, 367, 329
17, 441, 397, 400
18, 621, 451, 410
19, 632, 538, 521
20, 519, 500, 527
** ... 70 like lines cut
*Element, type=S4R
 91,   9,  16, 552, 586
 92, 553, 552,  16, 125
 93,  16,  15, 115, 125
 94, 257, 613, 594, 202
 95, 137, 133, 577, 259
 96, 124,  14,  13,  55
 97,   8, 572, 113,   1
 98, 561, 560,  32, 128
 99, 119, 116,   1, 113
100, 160, 159, 205, 207
101, 136, 203, 197, 567
102,  29,  93, 122,  30
103, 571, 570, 112, 134
104,  18,  17, 117, 123
105, 127,  24, 557, 570
106, 139, 129, 590, 592
107,  32,  31, 114, 128
108,   2,   1, 116, 121
109, 119, 113, 126, 578
110, 137,  39,  38, 133
** ... 515 like lines cut
*Nset, nset=_PickedSet2, internal, generate
   1,  633,    1
*Elset, elset=_PickedSet2, internal, generate
   1,  625,    1
** Section: tole
*Shell Section, elset=_PickedSet2, material=acier
1., 5
*End Part
**  
**
** ASSEMBLY
**
*Assembly, name=Assembly
**  
*Instance, name=plaque-1, part=plaque
*End Instance
**  
*Node
      1,   5.08659554,   394.913391,           0.
*Node
      2,   5.08659554,   5.08659554,           0.
*Node
      3,   394.913391,   5.08659554,           0.
*Node
      4,   394.913391,   394.913391,           0.
*Nset, nset=_PickedSet9, internal
 1,
*Nset, nset=_PickedSet11, internal
 2,
*Nset, nset=_PickedSet13, internal
 3,
*Nset, nset=_PickedSet15, internal
 4,
*Nset, nset=_PickedSet16, internal, generate
 1,  4,  1
*Elset, elset=__PickedSurf8_E2, internal, instance=plaque-1
  12,  35, 180
*Elset, elset=__PickedSurf8_E3, internal, instance=plaque-1, generate
 40,  42,   1
*Elset, elset=__PickedSurf8_E1, internal, instance=plaque-1
  50, 104
*Surface, type=ELEMENT, name=_PickedSurf8, internal
__PickedSurf8_E2, E2
__PickedSurf8_E3, E3
__PickedSurf8_E1, E1
*Elset, elset=__PickedSurf10_E2, internal, instance=plaque-1
   2,  10,  31,  96, 174
*Elset, elset=__PickedSurf10_E3, internal, instance=plaque-1
 29,
*Elset, elset=__PickedSurf10_E1, internal, instance=plaque-1
 91, 93
*Surface, type=ELEMENT, name=_PickedSurf10, internal
__PickedSurf10_E2, E2
__PickedSurf10_E3, E3
__PickedSurf10_E1, E1
*Elset, elset=__PickedSurf12_E3, internal, instance=plaque-1
  8, 28
*Elset, elset=__PickedSurf12_E2, internal, instance=plaque-1
  13,  23,  26, 173
*Elset, elset=__PickedSurf12_E4, internal, instance=plaque-1
 97,
*Elset, elset=__PickedSurf12_E1, internal, instance=plaque-1
 108,
*Surface, type=ELEMENT, name=_PickedSurf12, internal
__PickedSurf12_E3, E3
__PickedSurf12_E2, E2
__PickedSurf12_E4, E4
__PickedSurf12_E1, E1
*Elset, elset=__PickedSurf14_E2, internal, instance=plaque-1
   7,  11,  45, 176
*Elset, elset=__PickedSurf14_E3, internal, instance=plaque-1
 43,
*Elset, elset=__PickedSurf14_E4, internal, instance=plaque-1
 102,
*Elset, elset=__PickedSurf14_E1, internal, instance=plaque-1
 107, 124
*Surface, type=ELEMENT, name=_PickedSurf14, internal
__PickedSurf14_E2, E2
__PickedSurf14_E3, E3
__PickedSurf14_E4, E4
__PickedSurf14_E1, E1
** Constraint: Constraint-1
*Coupling, constraint name=Constraint-1, ref node=_PickedSet9, surface=_PickedSurf8
*Kinematic
** Constraint: Constraint-2
*Coupling, constraint name=Constraint-2, ref node=_PickedSet11, surface=_PickedSurf10
*Kinematic
** Constraint: Constraint-3
*Coupling, constraint name=Constraint-3, ref node=_PickedSet13, surface=_PickedSurf12
*Kinematic
** Constraint: Constraint-4
*Coupling, constraint name=Constraint-4, ref node=_PickedSet15, surface=_PickedSurf14
*Kinematic
*End Assembly
** 
** MATERIALS
** 
*Material, name=acier
*Density
 7.86e-09,
*Elastic
210000., 0.26
** ----------------------------------------------------------------
** 
** STEP: analyse_modale
** 
*Step, name=analyse_modale, nlgeom=NO, perturbation
*Frequency, eigensolver=Lanczos, sim, acoustic coupling=on, normalization=mass
, , 500., , , 
** 
** BOUNDARY CONDITIONS
** 
** Name: blocage Type: Symmetry/Antisymmetry/Encastre
*Boundary
_PickedSet16, ENCASTRE
** 
** OUTPUT REQUESTS
** 
*Restart, write, frequency=0
** 
** FIELD OUTPUT: F-Output-1
** 
*Output, field
*Node Output, variable=PRESELECT
** 
** HISTORY OUTPUT: H-Output-1
** 
*Output, history
*Energy Output, variable=ALL
*End Step
