*Heading
** Job name: vibration Model name: Model-1
** Generated by: Abaqus/CAE 2025
*Preprint, echo=NO, model=NO, history=NO, contact=NO
**
** PARTS
**
*Part, name=plaque
*Node
      1,    363.20343,   36.7965813,           0.
      2,    362.03183,   33.9681549,           0.
      3,    363.20343,   31.1397285,           0.
      4,    366.03183,   29.9681549,           0.
      5,    368.86026,   31.1397285,           0.
      6,    370.03183,   33.9681549,           0.
      7,    368.86026,   36.7965813,           0.
      8,    366.03183,   37.9681549,           0.
      9,   31.1397285,   36.7965813,           0.
     10,   29.9681549,   33.9681549,           0.
     11,   31.1397285,   31.1397285,           0.
     12,   33.9681549,   29.9681549,           0.
     13,   36.7965813,   31.1397285,           0.
     14,   37.9681549,   33.9681549,           0.
     15,   36.7965813,   36.7965813,           0.
     16,   33.9681549,   37.9681549,           0.
     17,   36.7965813,    363.20343,           0.
     18,   37.9681549,    366.03183,           0.
     19,   36.7965813,    368.86026,           0.
     20,   33.9681549,    370.03183,           0.
** ... 744 like lines cut
*Element, type=S3
 1, 125, 124,  29
 2, 157, 672, 127
 3, 155, 205, 123
 4, 694, 180, 204
 5, 122, 679, 153
 6, 696, 229, 144
 7, 126, 675,  31
 8, 127,  27,  26
 9, 696, 156, 704
10, 175, 114, 158
11, 204, 182, 164
12, 212, 211, 183
13, 177,  95, 187
14, 123, 205, 152
15, 179,  57,  56
16, 709, 233, 178
17, 201,  39,  38
18, 699, 130, 159
19, 284, 194, 224
20, 442, 389, 344
** ... 14 like lines cut
*Element, type=S4R
 35, 175, 197, 180, 694
 36, 158, 185, 197, 175
 37, 114,   5, 129, 158
 38, 130,   3, 115, 159
 39, 115,   3,   2, 667
 40, 196, 205, 151, 207
 41, 121, 151, 120,  11
 42, 203, 152, 205,  54
 43,   9,  16, 668, 669
 44, 131, 140,  23,  22
 45,  15, 670, 135,  16
 46, 135, 670, 162, 171
 47, 339, 436, 450, 720
 48,  14,  13, 122, 153
 49,   8,   7, 164, 138
 50, 168, 670, 153, 679
 51, 120, 155,  12,  11
 52,   8, 138, 665,   1
 53, 401, 326, 350, 427
 54, 258, 264,  61,  60
** ... 674 like lines cut
*Nset, nset=_PickedSet2, internal, generate
   1,  764,    1
*Elset, elset=_PickedSet2, internal, generate
   1,  728,    1
** Section: tole
*Shell Section, elset=_PickedSet2, material=acier
1., 5
*End Part
**  
**
** ASSEMBLY
**
*Assembly, name=Assembly
**  
*Instance, name=plaque-1, part=plaque
*End Instance
**  
*Node
      1,   33.9681549,    366.03183,           0.
*Node
      2,   33.9681549,   33.9681549,           0.
*Node
      3,    366.03183,   33.9681549,           0.
*Node
      4,    366.03183,    366.03183,           0.
*Nset, nset=_PickedSet9, internal
 1,
*Nset, nset=_PickedSet11, internal
 2,
*Nset, nset=_PickedSet13, internal
 3,
*Nset, nset=_PickedSet15, internal
 4,
*Nset, nset=_PickedSet16, internal, generate
 1,  4,  1
*Elset, elset=__PickedSurf8_E3, internal, instance=plaque-1
 44, 59
*Elset, elset=__PickedSurf8_E4, internal, instance=plaque-1
  62, 103, 108, 130
*Elset, elset=__PickedSurf8_E2, internal, instance=plaque-1
 152,
*Elset, elset=__PickedSurf8_E1, internal, instance=plaque-1
 156,
*Surface, type=ELEMENT, name=_PickedSurf8, internal
__PickedSurf8_E3, E3
__PickedSurf8_E4, E4
__PickedSurf8_E2, E2
__PickedSurf8_E1, E1
*Elset, elset=__PickedSurf10_E1, internal, instance=plaque-1
  43,  48, 142, 144
*Elset, elset=__PickedSurf10_E4, internal, instance=plaque-1
 45,
*Elset, elset=__PickedSurf10_E3, internal, instance=plaque-1
  51, 120
*Elset, elset=__PickedSurf10_E2, internal, instance=plaque-1
 145,
*Surface, type=ELEMENT, name=_PickedSurf10, internal
__PickedSurf10_E1, E1
__PickedSurf10_E4, E4
__PickedSurf10_E2, E2
__PickedSurf10_E3, E3
*Elset, elset=__PickedSurf12_E2, internal, instance=plaque-1
  39, 136
*Elset, elset=__PickedSurf12_E1, internal, instance=plaque-1
  49, 138
*Elset, elset=__PickedSurf12_E4, internal, instance=plaque-1
 52,
*Elset, elset=__PickedSurf12_E3, internal, instance=plaque-1
  71,  74, 101
*Surface, type=ELEMENT, name=_PickedSurf12, internal
__PickedSurf12_E2, E2
__PickedSurf12_E1, E1
__PickedSurf12_E4, E4
__PickedSurf12_E3, E3
*Elset, elset=__PickedSurf14_E2, internal, instance=plaque-1
   8,  56,  70,  92, 134, 148, 704
*Elset, elset=__PickedSurf14_E3, internal, instance=plaque-1
 65,
*Surface, type=ELEMENT, name=_PickedSurf14, internal
__PickedSurf14_E2, E2
__PickedSurf14_E3, E3
** Constraint: Constraint-1
*Coupling, constraint name=Constraint-1, ref node=_PickedSet9, surface=_PickedSurf8
*Kinematic
** Constraint: Constraint-2
*Coupling, constraint name=Constraint-2, ref node=_PickedSet11, surface=_PickedSurf10
*Kinematic
** Constraint: Constraint-3
*Coupling, constraint name=Constraint-3, ref node=_PickedSet13, surface=_PickedSurf12
*Kinematic
** Constraint: Constraint-4
*Coupling, constraint name=Constraint-4, ref node=_PickedSet15, surface=_PickedSurf14
*Kinematic
*End Assembly
** 
** MATERIALS
** 
*Material, name=acier
*Density
 7.86e-09,
*Elastic
210000., 0.26
** ----------------------------------------------------------------
** 
** STEP: analyse_modale
** 
*Step, name=analyse_modale, nlgeom=NO, perturbation
*Frequency, eigensolver=Lanczos, sim, acoustic coupling=on, normalization=mass
, , 500., , , 
** 
** BOUNDARY CONDITIONS
** 
** Name: blocage Type: Symmetry/Antisymmetry/Encastre
*Boundary
_PickedSet16, ENCASTRE
** 
** OUTPUT REQUESTS
** 
*Restart, write, frequency=0
** 
** FIELD OUTPUT: F-Output-1
** 
*Output, field
*Node Output, variable=PRESELECT
** 
** HISTORY OUTPUT: H-Output-1
** 
*Output, history
*Energy Output, variable=ALL
*End Step
