*Heading
** Job name: vibration Model name: Model-1
** Generated by: Abaqus/CAE 2025
*Preprint, echo=NO, model=NO, history=NO, contact=NO
**
** PARTS
**
*Part, name=plaque
*Node
      1,   357.349884,   42.6501198,           0.
      2,   356.178314,   39.8216934,           0.
      3,   357.349884,   36.9932671,           0.
      4,   360.178314,   35.8216934,           0.
      5,   363.006744,   36.9932671,           0.
      6,   364.178314,   39.8216934,           0.
      7,   363.006744,   42.6501198,           0.
      8,   360.178314,   43.8216934,           0.
      9,   36.9932671,   42.6501198,           0.
     10,   35.8216934,   39.8216934,           0.
     11,   36.9932671,   36.9932671,           0.
     12,   39.8216934,   35.8216934,           0.
     13,   42.6501198,   36.9932671,           0.
     14,   43.8216934,   39.8216934,           0.
     15,   42.6501198,   42.6501198,           0.
     16,   39.8216934,   43.8216934,           0.
     17,   42.6501198,   357.349884,           0.
     18,   43.8216934,   360.178314,           0.
     19,   42.6501198,   363.006744,           0.
     20,   39.8216934,   364.178314,           0.
** ... 870 like lines cut
*Element, type=S3
 1,  20, 151,  21
 2, 182, 128, 140
 3, 176, 197, 214
 4, 128, 182, 147
 5, 146, 118,   6
 6, 181, 140, 129
 7, 796, 263, 292
 8, 213, 200, 177
 9, 220, 184, 209
10, 211,  96,  95
11, 803, 193, 253
12, 159, 800, 207
13, 318, 854, 313
14, 345, 398, 327
15, 831, 472, 861
16, 822, 422, 350
17, 467, 359, 416
18, 560, 504, 549
19, 529, 474, 522
20, 580, 527, 528
** ... 18 like lines cut
*Element, type=S4R
 39,   7,   6, 118, 137
 40, 792, 172, 146, 779
 41, 779,   5,   4, 130
 42, 119, 150,   3,   2
 43, 207, 218, 190, 166
 44, 125,  13, 126, 144
 45, 122,  11, 123, 145
 46, 122, 145, 175, 143
 47,   9, 117, 788,  10
 48, 178, 791, 788, 189
 49, 132, 153,  23,  22
 50, 168, 241, 164, 115
 51, 152,  15, 124, 781
 52, 263, 243, 194, 255
 53, 168, 115, 153, 184
 54, 251, 289, 298, 288
 55,  14,  13, 125, 171
 56,   8, 136, 155,   1
 57, 781, 124, 158, 252
 58, 122, 143,  12,  11
** ... 798 like lines cut
*Nset, nset=_PickedSet2, internal, generate
   1,  890,    1
*Elset, elset=_PickedSet2, internal, generate
   1,  856,    1
** Section: tole
*Shell Section, elset=_PickedSet2, material=acier
1., 5
*End Part
**  
**
** ASSEMBLY
**
*Assembly, name=Assembly
**  
*Instance, name=plaque-1, part=plaque
*End Instance
**  
*Node
      1,   39.8216934,   360.178314,           0.
*Node
      2,   39.8216934,   39.8216934,           0.
*Node
      3,   360.178314,   39.8216934,           0.
*Node
      4,   360.178314,   360.178314,           0.
*Nset, nset=_PickedSet9, internal
 1,
*Nset, nset=_PickedSet11, internal
 2,
*Nset, nset=_PickedSet13, internal
 3,
*Nset, nset=_PickedSet15, internal
 4,
*Nset, nset=_PickedSet16, internal, generate
 1,  4,  1
*Elset, elset=__PickedSurf8_E3, internal, instance=plaque-1
  1, 49, 63, 66
*Elset, elset=__PickedSurf8_E2, internal, instance=plaque-1
 127, 131, 143, 144
*Surface, type=ELEMENT, name=_PickedSurf8, internal
__PickedSurf8_E3, E3
__PickedSurf8_E2, E2
*Elset, elset=__PickedSurf10_E4, internal, instance=plaque-1
  47, 116
*Elset, elset=__PickedSurf10_E1, internal, instance=plaque-1
 55,
*Elset, elset=__PickedSurf10_E3, internal, instance=plaque-1
 58,
*Elset, elset=__PickedSurf10_E2, internal, instance=plaque-1
 128, 133, 135, 136
*Surface, type=ELEMENT, name=_PickedSurf10, internal
__PickedSurf10_E4, E4
__PickedSurf10_E1, E1
__PickedSurf10_E2, E2
__PickedSurf10_E3, E3
*Elset, elset=__PickedSurf12_E1, internal, instance=plaque-1
 39,
*Elset, elset=__PickedSurf12_E2, internal, instance=plaque-1
  41, 126, 129, 140
*Elset, elset=__PickedSurf12_E3, internal, instance=plaque-1
 42,
*Elset, elset=__PickedSurf12_E4, internal, instance=plaque-1
 56, 79
*Surface, type=ELEMENT, name=_PickedSurf12, internal
__PickedSurf12_E1, E1
__PickedSurf12_E2, E2
__PickedSurf12_E4, E4
__PickedSurf12_E3, E3
*Elset, elset=__PickedSurf14_E2, internal, instance=plaque-1
  61,  73, 125
*Elset, elset=__PickedSurf14_E3, internal, instance=plaque-1
 70, 90
*Elset, elset=__PickedSurf14_E4, internal, instance=plaque-1
 71, 93
*Elset, elset=__PickedSurf14_E1, internal, instance=plaque-1
 154,
*Surface, type=ELEMENT, name=_PickedSurf14, internal
__PickedSurf14_E2, E2
__PickedSurf14_E3, E3
__PickedSurf14_E4, E4
__PickedSurf14_E1, E1
** Constraint: Constraint-1
*Coupling, constraint name=Constraint-1, ref node=_PickedSet9, surface=_PickedSurf8
*Kinematic
** Constraint: Constraint-2
*Coupling, constraint name=Constraint-2, ref node=_PickedSet11, surface=_PickedSurf10
*Kinematic
** Constraint: Constraint-3
*Coupling, constraint name=Constraint-3, ref node=_PickedSet13, surface=_PickedSurf12
*Kinematic
** Constraint: Constraint-4
*Coupling, constraint name=Constraint-4, ref node=_PickedSet15, surface=_PickedSurf14
*Kinematic
*End Assembly
** 
** MATERIALS
** 
*Material, name=acier
*Density
 7.86e-09,
*Elastic
210000., 0.26
** ----------------------------------------------------------------
** 
** STEP: analyse_modale
** 
*Step, name=analyse_modale, nlgeom=NO, perturbation
*Frequency, eigensolver=Lanczos, sim, acoustic coupling=on, normalization=mass
, , 500., , , 
** 
** BOUNDARY CONDITIONS
** 
** Name: blocage Type: Symmetry/Antisymmetry/Encastre
*Boundary
_PickedSet16, ENCASTRE
** 
** OUTPUT REQUESTS
** 
*Restart, write, frequency=0
** 
** FIELD OUTPUT: F-Output-1
** 
*Output, field
*Node Output, variable=PRESELECT
** 
** HISTORY OUTPUT: H-Output-1
** 
*Output, history
*Energy Output, variable=ALL
*End Step
