*Heading
** Job name: vibration Model name: Model-1
** Generated by: Abaqus/CAE 2025
*Preprint, echo=NO, model=NO, history=NO, contact=NO
**
** PARTS
**
*Part, name=plaque
*Node
      1,   368.583862,   31.4161339,           0.
      2,   367.412292,   28.5877075,           0.
      3,   368.583862,   25.7592812,           0.
      4,   371.412292,   24.5877075,           0.
      5,   374.240723,   25.7592812,           0.
      6,   375.412292,   28.5877075,           0.
      7,   374.240723,   31.4161339,           0.
      8,   371.412292,   32.5877075,           0.
      9,   25.7592812,   31.4161339,           0.
     10,   24.5877075,   28.5877075,           0.
     11,   25.7592812,   25.7592812,           0.
     12,   28.5877075,   24.5877075,           0.
     13,   31.4161339,   25.7592812,           0.
     14,   32.5877075,   28.5877075,           0.
     15,   31.4161339,   31.4161339,           0.
     16,   28.5877075,   32.5877075,           0.
     17,   31.4161339,   368.583862,           0.
     18,   32.5877075,   371.412292,           0.
     19,   31.4161339,   374.240723,           0.
     20,   28.5877075,   375.412292,           0.
** ... 727 like lines cut
*Element, type=S3
 1,  33,  74, 168
 2, 223, 663, 165
 3, 162, 134, 155
 4, 673, 112, 111
 5, 386, 330, 383
 6, 209, 189, 202
 7, 159, 133, 152
 8, 167, 169, 151
 9, 133, 164,  16
10, 654, 270, 132
11, 141, 147, 168
12, 146, 167, 118
13, 122, 672, 163
14, 118, 167, 151
15,  56, 172, 140
16, 140,  57,  56
17,  34, 170,  94
18, 657, 157, 204
19, 157, 657, 273
20, 522, 455, 481
** ... 16 like lines cut
*Element, type=S4R
 37, 141, 168, 171, 664
 38, 127, 147,   5,   4
 39, 116, 148,   3,   2
 40, 165, 117, 160, 223
 41, 678, 679, 670, 677
 42, 164, 120,   9,  16
 43, 652, 133, 159, 667
 44, 138,  23,  22, 129
 45, 243, 241, 293, 313
 46, 152,  15, 121, 653
 47, 152, 653, 178, 159
 48, 211, 702, 210, 689
 49,  14,  13, 122, 163
 50,   8, 115, 161, 135
 51, 145,  12,  11, 119
 52, 116,   2, 117, 165
 53, 227, 266, 295, 294
 54, 686, 226, 256, 201
 55, 180, 189, 656, 124
 56,  29, 149, 158,  30
** ... 656 like lines cut
*Nset, nset=_PickedSet2, internal, generate
   1,  747,    1
*Elset, elset=_PickedSet2, internal, generate
   1,  712,    1
** Section: tole
*Shell Section, elset=_PickedSet2, material=acier
1., 5
*End Part
**  
**
** ASSEMBLY
**
*Assembly, name=Assembly
**  
*Instance, name=plaque-1, part=plaque
*End Instance
**  
*Node
      1,   28.5877075,   371.412292,           0.
*Node
      2,   28.5877075,   28.5877075,           0.
*Node
      3,   371.412292,   28.5877075,           0.
*Node
      4,   371.412292,   371.412292,           0.
*Nset, nset=_PickedSet9, internal
 1,
*Nset, nset=_PickedSet11, internal
 2,
*Nset, nset=_PickedSet13, internal
 3,
*Nset, nset=_PickedSet15, internal
 4,
*Nset, nset=_PickedSet16, internal, generate
 1,  4,  1
*Elset, elset=__PickedSurf8_E2, internal, instance=plaque-1
 44, 58, 59
*Elset, elset=__PickedSurf8_E4, internal, instance=plaque-1
  60, 118, 121
*Elset, elset=__PickedSurf8_E3, internal, instance=plaque-1
 120, 122
*Surface, type=ELEMENT, name=_PickedSurf8, internal
__PickedSurf8_E2, E2
__PickedSurf8_E4, E4
__PickedSurf8_E3, E3
*Elset, elset=__PickedSurf10_E3, internal, instance=plaque-1
  42,  77, 108
*Elset, elset=__PickedSurf10_E1, internal, instance=plaque-1
 49,
*Elset, elset=__PickedSurf10_E2, internal, instance=plaque-1
  51, 127, 130
*Elset, elset=__PickedSurf10_E4, internal, instance=plaque-1
 109,
*Surface, type=ELEMENT, name=_PickedSurf10, internal
__PickedSurf10_E3, E3
__PickedSurf10_E1, E1
__PickedSurf10_E2, E2
__PickedSurf10_E4, E4
*Elset, elset=__PickedSurf12_E3, internal, instance=plaque-1
  38,  39,  94, 126
*Elset, elset=__PickedSurf12_E4, internal, instance=plaque-1
  92,  95, 124, 135
*Surface, type=ELEMENT, name=_PickedSurf12, internal
__PickedSurf12_E3, E3
__PickedSurf12_E4, E4
*Elset, elset=__PickedSurf14_E4, internal, instance=plaque-1
  56,  63,  64,  82, 105
*Elset, elset=__PickedSurf14_E3, internal, instance=plaque-1
 65, 81
*Elset, elset=__PickedSurf14_E2, internal, instance=plaque-1
 123,
*Surface, type=ELEMENT, name=_PickedSurf14, internal
__PickedSurf14_E4, E4
__PickedSurf14_E3, E3
__PickedSurf14_E2, E2
** Constraint: Constraint-1
*Coupling, constraint name=Constraint-1, ref node=_PickedSet9, surface=_PickedSurf8
*Kinematic
** Constraint: Constraint-2
*Coupling, constraint name=Constraint-2, ref node=_PickedSet11, surface=_PickedSurf10
*Kinematic
** Constraint: Constraint-3
*Coupling, constraint name=Constraint-3, ref node=_PickedSet13, surface=_PickedSurf12
*Kinematic
** Constraint: Constraint-4
*Coupling, constraint name=Constraint-4, ref node=_PickedSet15, surface=_PickedSurf14
*Kinematic
*End Assembly
** 
** MATERIALS
** 
*Material, name=acier
*Density
 7.86e-09,
*Elastic
210000., 0.26
** ----------------------------------------------------------------
** 
** STEP: analyse_modale
** 
*Step, name=analyse_modale, nlgeom=NO, perturbation
*Frequency, eigensolver=Lanczos, sim, acoustic coupling=on, normalization=mass
, , 500., , , 
** 
** BOUNDARY CONDITIONS
** 
** Name: blocage Type: Symmetry/Antisymmetry/Encastre
*Boundary
_PickedSet16, ENCASTRE
** 
** OUTPUT REQUESTS
** 
*Restart, write, frequency=0
** 
** FIELD OUTPUT: F-Output-1
** 
*Output, field
*Node Output, variable=PRESELECT
** 
** HISTORY OUTPUT: H-Output-1
** 
*Output, history
*Energy Output, variable=ALL
*End Step
