*Heading
** Job name: vibration Model name: Model-1
** Generated by: Abaqus/CAE 2025
*Preprint, echo=NO, model=NO, history=NO, contact=NO
**
** PARTS
**
*Part, name=plaque
*Node
      1,      347.513,   52.4869843,           0.
      2,   346.341431,   49.6585579,           0.
      3,      347.513,   46.8301315,           0.
      4,   350.341431,   45.6585579,           0.
      5,   353.169861,   46.8301315,           0.
      6,   354.341431,   49.6585579,           0.
      7,   353.169861,   52.4869843,           0.
      8,   350.341431,   53.6585579,           0.
      9,   46.8301315,   52.4869843,           0.
     10,   45.6585579,   49.6585579,           0.
     11,   46.8301315,   46.8301315,           0.
     12,   49.6585579,   45.6585579,           0.
     13,   52.4869843,   46.8301315,           0.
     14,   53.6585579,   49.6585579,           0.
     15,   52.4869843,   52.4869843,           0.
     16,   49.6585579,   53.6585579,           0.
     17,   52.4869843,      347.513,           0.
     18,   53.6585579,   350.341431,           0.
     19,   52.4869843,   353.169861,           0.
     20,   49.6585579,   354.341431,           0.
** ... 1277 like lines cut
*Element, type=S3
 1, 1158,  123,  156
 2, 1168,  132,  148
 3,  225,  201,  200
 4, 1165,  202,  114
 5,  176,  181,  153
 6,  254,  203,  234
 7,  139,  208,  170
 8, 1157,  212,  152
 9, 1088,  190,  267
10,  323,  340,  308
11,  340,  363,  292
12,  390,  403, 1214
13,  281,  353,  301
14,  442, 1214,  420
15, 1201,  416,  394
16,  478,  418,  435
17, 1203,  500, 1056
18,  475,  443,  473
19,  515,  497,  478
20,  547,  518,  499
** ... 40 like lines cut
*Element, type=S4R
  61,  241,  181,  176, 1185
  62,  116, 1154,  176,  153
  63,  116,    5,  133, 1154
  64,  121, 1155,  162,    3
  65,  142,  204,  118, 1156
  66,  221,  159, 1159,  192
  67,  237,  192, 1172,  179
  68,  158, 1160,  124,  189
  69,  124,    9,  137,  165
  70,  308,  235,  144,  243
  71,  139,   23,  134,  144
  72,   16,   15,  115,  166
  73,  315,  256,  292,  363
  74,  277,  228,  256,  315
  75,    8,    7,  140,  167
  76,  115,   15,  125,  145
  77,  405,  342,  374, 1216
  78,  404,  421,  389,  388
  79,  126,  157,   14,   13
  80,  159,   12,  122, 1159
** ... 1194 like lines cut
*Nset, nset=_PickedSet2, internal, generate
    1,  1297,     1
*Elset, elset=_PickedSet2, internal, generate
    1,  1274,     1
** Section: tole
*Shell Section, elset=_PickedSet2, material=acier
1., 5
*End Part
**  
**
** ASSEMBLY
**
*Assembly, name=Assembly
**  
*Instance, name=plaque-1, part=plaque
*End Instance
**  
*Node
      1,   49.6585579,   350.341431,           0.
*Node
      2,   49.6585579,   49.6585579,           0.
*Node
      3,   350.341431,   49.6585579,           0.
*Node
      4,   350.341431,   350.341431,           0.
*Nset, nset=_PickedSet9, internal
 1,
*Nset, nset=_PickedSet11, internal
 2,
*Nset, nset=_PickedSet13, internal
 3,
*Nset, nset=_PickedSet15, internal
 4,
*Nset, nset=_PickedSet16, internal, generate
 1,  4,  1
*Elset, elset=__PickedSurf8_E1, internal, instance=plaque-1
 91,
*Elset, elset=__PickedSurf8_E4, internal, instance=plaque-1
 151, 162, 163
*Elset, elset=__PickedSurf8_E3, internal, instance=plaque-1
 152, 154
*Elset, elset=__PickedSurf8_E2, internal, instance=plaque-1
 161, 181
*Surface, type=ELEMENT, name=_PickedSurf8, internal
__PickedSurf8_E1, E1
__PickedSurf8_E4, E4
__PickedSurf8_E2, E2
__PickedSurf8_E3, E3
*Elset, elset=__PickedSurf10_E1, internal, instance=plaque-1
  72, 166
*Elset, elset=__PickedSurf10_E3, internal, instance=plaque-1
 79,
*Elset, elset=__PickedSurf10_E4, internal, instance=plaque-1
 111, 112, 167
*Elset, elset=__PickedSurf10_E2, internal, instance=plaque-1
 165, 169
*Surface, type=ELEMENT, name=_PickedSurf10, internal
__PickedSurf10_E1, E1
__PickedSurf10_E3, E3
__PickedSurf10_E4, E4
__PickedSurf10_E2, E2
*Elset, elset=__PickedSurf12_E1, internal, instance=plaque-1
 75,
*Elset, elset=__PickedSurf12_E3, internal, instance=plaque-1
  81, 101
*Elset, elset=__PickedSurf12_E4, internal, instance=plaque-1
  82, 106
*Elset, elset=__PickedSurf12_E2, internal, instance=plaque-1
 158, 160, 164
*Surface, type=ELEMENT, name=_PickedSurf12, internal
__PickedSurf12_E1, E1
__PickedSurf12_E3, E3
__PickedSurf12_E4, E4
__PickedSurf12_E2, E2
*Elset, elset=__PickedSurf14_E3, internal, instance=plaque-1
 85,
*Elset, elset=__PickedSurf14_E2, internal, instance=plaque-1
  98, 173, 175, 179
*Elset, elset=__PickedSurf14_E4, internal, instance=plaque-1
 157, 176, 177
*Surface, type=ELEMENT, name=_PickedSurf14, internal
__PickedSurf14_E3, E3
__PickedSurf14_E2, E2
__PickedSurf14_E4, E4
** Constraint: Constraint-1
*Coupling, constraint name=Constraint-1, ref node=_PickedSet9, surface=_PickedSurf8
*Kinematic
** Constraint: Constraint-2
*Coupling, constraint name=Constraint-2, ref node=_PickedSet11, surface=_PickedSurf10
*Kinematic
** Constraint: Constraint-3
*Coupling, constraint name=Constraint-3, ref node=_PickedSet13, surface=_PickedSurf12
*Kinematic
** Constraint: Constraint-4
*Coupling, constraint name=Constraint-4, ref node=_PickedSet15, surface=_PickedSurf14
*Kinematic
*End Assembly
** 
** MATERIALS
** 
*Material, name=acier
*Density
 7.86e-09,
*Elastic
210000., 0.26
** ----------------------------------------------------------------
** 
** STEP: analyse_modale
** 
*Step, name=analyse_modale, nlgeom=NO, perturbation
*Frequency, eigensolver=Lanczos, sim, acoustic coupling=on, normalization=mass
, , 500., , , 
** 
** BOUNDARY CONDITIONS
** 
** Name: blocage Type: Symmetry/Antisymmetry/Encastre
*Boundary
_PickedSet16, ENCASTRE
** 
** OUTPUT REQUESTS
** 
*Restart, write, frequency=0
** 
** FIELD OUTPUT: F-Output-1
** 
*Output, field
*Node Output, variable=PRESELECT
** 
** HISTORY OUTPUT: H-Output-1
** 
*Output, history
*Energy Output, variable=ALL
*End Step
