*Heading
** Job name: vibration Model name: Model-1
** Generated by: Abaqus/CAE 2025
*Preprint, echo=NO, model=NO, history=NO, contact=NO
**
** PARTS
**
*Part, name=plaque
*Node
      1,   382.811859,   17.1881561,           0.
      2,   381.640259,   14.3597279,           0.
      3,   382.811859,   11.5313015,           0.
      4,   385.640259,   10.3597279,           0.
      5,   388.468689,   11.5313015,           0.
      6,   389.640259,   14.3597279,           0.
      7,   388.468689,   17.1881561,           0.
      8,   385.640259,   18.3597279,           0.
      9,   11.5313015,   17.1881561,           0.
     10,   10.3597279,   14.3597279,           0.
     11,   11.5313015,   11.5313015,           0.
     12,   14.3597279,   10.3597279,           0.
     13,   17.1881561,   11.5313015,           0.
     14,   18.3597279,   14.3597279,           0.
     15,   17.1881561,   17.1881561,           0.
     16,   14.3597279,   18.3597279,           0.
     17,   17.1881561,   382.811859,           0.
     18,   18.3597279,   385.640259,           0.
     19,   17.1881561,   388.468689,           0.
     20,   14.3597279,   389.640259,           0.
** ... 630 like lines cut
*Element, type=S3
 1, 590, 591, 164
 2,  18, 135,  19
 3,  55, 132,  34
 4,  20, 592, 145
 5, 608, 136,  33
 6, 146,  36, 112
 7, 139,   7, 588
 8, 152,  74,  73
 9, 593,  56, 151
10, 147, 601, 134
11, 152, 128, 139
12, 602, 114, 148
13, 164, 116, 590
14, 166,  57, 159
15, 466, 364, 403
16, 435, 390, 382
17, 642, 569, 553
18, 506, 471, 462
19, 515, 564, 540
20, 644, 524, 566
** ... 20 like lines cut
*Element, type=S4R
 41, 136,   5,   4, 137
 42, 136, 137,  37,  33
 43, 113,   2,   1, 126
 44,  12, 148, 114,  13
 45, 149, 117,  11,  10
 46, 132, 117, 149,  34
 47, 149,  10, 144,  94
 48, 597, 122, 112, 111
 49,  23, 143, 140,  24
 50, 115, 138,  15,  14
 51,  50,  49, 184, 231
 52, 217, 173,  40,  39
 53, 590,  13, 114, 591
 54,  14,  13, 590, 116
 55, 588,   7,   6, 608
 56, 128, 126,   1,   8
 57, 232, 190, 189, 238
 58,  59,  58, 218, 174
 59,  92, 133, 595,  93
 60, 119, 142,  93, 595
** ... 557 like lines cut
*Nset, nset=_PickedSet2, internal, generate
   1,  650,    1
*Elset, elset=_PickedSet2, internal, generate
   1,  617,    1
** Section: tole
*Shell Section, elset=_PickedSet2, material=acier
1., 5
*End Part
**  
**
** ASSEMBLY
**
*Assembly, name=Assembly
**  
*Instance, name=plaque-1, part=plaque
*End Instance
**  
*Node
      1,   14.3597279,   385.640259,           0.
*Node
      2,   14.3597279,   14.3597279,           0.
*Node
      3,   385.640259,   14.3597279,           0.
*Node
      4,   385.640259,   385.640259,           0.
*Nset, nset=_PickedSet9, internal
 1,
*Nset, nset=_PickedSet11, internal
 2,
*Nset, nset=_PickedSet13, internal
 3,
*Nset, nset=_PickedSet15, internal
 4,
*Nset, nset=_PickedSet16, internal, generate
 1,  4,  1
*Elset, elset=__PickedSurf8_E3, internal, instance=plaque-1
   2, 140
*Elset, elset=__PickedSurf8_E4, internal, instance=plaque-1
  49, 130, 601
*Elset, elset=__PickedSurf8_E2, internal, instance=plaque-1
  61, 141
*Elset, elset=__PickedSurf8_E1, internal, instance=plaque-1
 96,
*Surface, type=ELEMENT, name=_PickedSurf8, internal
__PickedSurf8_E3, E3
__PickedSurf8_E4, E4
__PickedSurf8_E2, E2
__PickedSurf8_E1, E1
*Elset, elset=__PickedSurf10_E2, internal, instance=plaque-1
 23,
*Elset, elset=__PickedSurf10_E4, internal, instance=plaque-1
  44, 111, 160
*Elset, elset=__PickedSurf10_E3, internal, instance=plaque-1
  45,  50, 131
*Elset, elset=__PickedSurf10_E1, internal, instance=plaque-1
 54,
*Surface, type=ELEMENT, name=_PickedSurf10, internal
__PickedSurf10_E2, E2
__PickedSurf10_E4, E4
__PickedSurf10_E3, E3
__PickedSurf10_E1, E1
*Elset, elset=__PickedSurf12_E2, internal, instance=plaque-1
  41,  43,  55, 142
*Elset, elset=__PickedSurf12_E3, internal, instance=plaque-1
 56,
*Elset, elset=__PickedSurf12_E4, internal, instance=plaque-1
 68,
*Elset, elset=__PickedSurf12_E1, internal, instance=plaque-1
 128, 148
*Surface, type=ELEMENT, name=_PickedSurf12, internal
__PickedSurf12_E2, E2
__PickedSurf12_E3, E3
__PickedSurf12_E4, E4
__PickedSurf12_E1, E1
*Elset, elset=__PickedSurf14_E3, internal, instance=plaque-1
  26, 139
*Elset, elset=__PickedSurf14_E4, internal, instance=plaque-1
 67,
*Elset, elset=__PickedSurf14_E1, internal, instance=plaque-1
  83, 135
*Elset, elset=__PickedSurf14_E2, internal, instance=plaque-1
 126, 134, 138
*Surface, type=ELEMENT, name=_PickedSurf14, internal
__PickedSurf14_E3, E3
__PickedSurf14_E4, E4
__PickedSurf14_E2, E2
__PickedSurf14_E1, E1
** Constraint: Constraint-1
*Coupling, constraint name=Constraint-1, ref node=_PickedSet9, surface=_PickedSurf8
*Kinematic
** Constraint: Constraint-2
*Coupling, constraint name=Constraint-2, ref node=_PickedSet11, surface=_PickedSurf10
*Kinematic
** Constraint: Constraint-3
*Coupling, constraint name=Constraint-3, ref node=_PickedSet13, surface=_PickedSurf12
*Kinematic
** Constraint: Constraint-4
*Coupling, constraint name=Constraint-4, ref node=_PickedSet15, surface=_PickedSurf14
*Kinematic
*End Assembly
** 
** MATERIALS
** 
*Material, name=acier
*Density
 7.86e-09,
*Elastic
210000., 0.26
** ----------------------------------------------------------------
** 
** STEP: analyse_modale
** 
*Step, name=analyse_modale, nlgeom=NO, perturbation
*Frequency, eigensolver=Lanczos, sim, acoustic coupling=on, normalization=mass
, , 500., , , 
** 
** BOUNDARY CONDITIONS
** 
** Name: blocage Type: Symmetry/Antisymmetry/Encastre
*Boundary
_PickedSet16, ENCASTRE
** 
** OUTPUT REQUESTS
** 
*Restart, write, frequency=0
** 
** FIELD OUTPUT: F-Output-1
** 
*Output, field
*Node Output, variable=PRESELECT
** 
** HISTORY OUTPUT: H-Output-1
** 
*Output, history
*Energy Output, variable=ALL
*End Step
