*Heading
** Job name: vibration Model name: Model-1
** Generated by: Abaqus/CAE 2025
*Preprint, echo=NO, model=NO, history=NO, contact=NO
**
** PARTS
**
*Part, name=plaque
*Node
      1,   374.271118,   25.7288876,           0.
      2,   373.099548,   22.9004593,           0.
      3,   374.271118,   20.0720329,           0.
      4,   377.099548,   18.9004593,           0.
      5,   379.927979,   20.0720329,           0.
      6,   381.099548,   22.9004593,           0.
      7,   379.927979,   25.7288876,           0.
      8,   377.099548,   26.9004593,           0.
      9,   20.0720329,   25.7288876,           0.
     10,   18.9004593,   22.9004593,           0.
     11,   20.0720329,   20.0720329,           0.
     12,   22.9004593,   18.9004593,           0.
     13,   25.7288876,   20.0720329,           0.
     14,   26.9004593,   22.9004593,           0.
     15,   25.7288876,   25.7288876,           0.
     16,   22.9004593,   26.9004593,           0.
     17,   25.7288876,   374.271118,           0.
     18,   26.9004593,   377.099548,           0.
     19,   25.7288876,   379.927979,           0.
     20,   22.9004593,   381.099548,           0.
** ... 689 like lines cut
*Element, type=S3
 1, 184, 128, 145
 2, 128, 639, 136
 3, 115, 662, 175
 4, 186, 113, 133
 5, 187, 141, 629
 6, 159,  93,  92
 7, 185, 160,  75
 8, 123, 138,  56
 9, 136, 639, 663
10, 179, 648,  92
11, 162,  38,  37
12,  55, 636,  34
13,  57, 170, 197
14, 636, 630, 187
15, 667,  74, 183
16, 184,  36, 112
17, 667,  33,  74
18, 111, 639, 112
19, 259, 175, 662
20, 677, 286, 256
** ... 26 like lines cut
*Element, type=S4R
 47, 135, 116, 144, 183
 48, 139, 188, 144, 125
 49, 667, 183, 144, 188
 50, 117,   3,   2, 157
 51,  11, 646, 644,  12
 52, 141, 142,  11,  10
 53, 134,   9,  16, 130
 54,  22, 126, 148,  23
 55, 147,  15, 119, 627
 56, 172, 154, 147, 627
 57, 673, 192, 681, 676
 58, 177, 189, 173, 149
 59, 132,   8, 113, 163
 60,  14,  13, 161, 156
 61, 116, 135,   6,   5
 62, 118, 157,   2,   1
 63, 101, 226, 227, 102
 64,  59,  58, 234, 202
 65,  28,  27, 122, 137
 66, 127, 146, 634,  19
** ... 613 like lines cut
*Nset, nset=_PickedSet2, internal, generate
   1,  709,    1
*Elset, elset=_PickedSet2, internal, generate
   1,  679,    1
** Section: tole
*Shell Section, elset=_PickedSet2, material=acier
1., 5
*End Part
**  
**
** ASSEMBLY
**
*Assembly, name=Assembly
**  
*Instance, name=plaque-1, part=plaque
*End Instance
**  
*Node
      1,   22.9004593,   377.099548,           0.
*Node
      2,   22.9004593,   22.9004593,           0.
*Node
      3,   377.099548,   22.9004593,           0.
*Node
      4,   377.099548,   377.099548,           0.
*Nset, nset=_PickedSet9, internal
 1,
*Nset, nset=_PickedSet11, internal
 2,
*Nset, nset=_PickedSet13, internal
 3,
*Nset, nset=_PickedSet15, internal
 4,
*Nset, nset=_PickedSet16, internal, generate
 1,  4,  1
*Elset, elset=__PickedSurf8_E4, internal, instance=plaque-1
  54,  68, 131
*Elset, elset=__PickedSurf8_E2, internal, instance=plaque-1
 106, 135, 141
*Elset, elset=__PickedSurf8_E1, internal, instance=plaque-1
 140, 161
*Surface, type=ELEMENT, name=_PickedSurf8, internal
__PickedSurf8_E4, E4
__PickedSurf8_E2, E2
__PickedSurf8_E1, E1
*Elset, elset=__PickedSurf10_E4, internal, instance=plaque-1
  51,  89, 119
*Elset, elset=__PickedSurf10_E3, internal, instance=plaque-1
  52, 117
*Elset, elset=__PickedSurf10_E2, internal, instance=plaque-1
 53, 91
*Elset, elset=__PickedSurf10_E1, internal, instance=plaque-1
 60,
*Surface, type=ELEMENT, name=_PickedSurf10, internal
__PickedSurf10_E4, E4
__PickedSurf10_E3, E3
__PickedSurf10_E2, E2
__PickedSurf10_E1, E1
*Elset, elset=__PickedSurf12_E2, internal, instance=plaque-1
  50, 134, 137
*Elset, elset=__PickedSurf12_E3, internal, instance=plaque-1
  61,  62,  77,  78, 133
*Surface, type=ELEMENT, name=_PickedSurf12, internal
__PickedSurf12_E2, E2
__PickedSurf12_E3, E3
*Elset, elset=__PickedSurf14_E1, internal, instance=plaque-1
 65, 75
*Elset, elset=__PickedSurf14_E3, internal, instance=plaque-1
 74, 76, 92
*Elset, elset=__PickedSurf14_E4, internal, instance=plaque-1
 94,
*Elset, elset=__PickedSurf14_E2, internal, instance=plaque-1
 145, 146
*Surface, type=ELEMENT, name=_PickedSurf14, internal
__PickedSurf14_E1, E1
__PickedSurf14_E3, E3
__PickedSurf14_E4, E4
__PickedSurf14_E2, E2
** Constraint: Constraint-1
*Coupling, constraint name=Constraint-1, ref node=_PickedSet9, surface=_PickedSurf8
*Kinematic
** Constraint: Constraint-2
*Coupling, constraint name=Constraint-2, ref node=_PickedSet11, surface=_PickedSurf10
*Kinematic
** Constraint: Constraint-3
*Coupling, constraint name=Constraint-3, ref node=_PickedSet13, surface=_PickedSurf12
*Kinematic
** Constraint: Constraint-4
*Coupling, constraint name=Constraint-4, ref node=_PickedSet15, surface=_PickedSurf14
*Kinematic
*End Assembly
** 
** MATERIALS
** 
*Material, name=acier
*Density
 7.86e-09,
*Elastic
210000., 0.26
** ----------------------------------------------------------------
** 
** STEP: analyse_modale
** 
*Step, name=analyse_modale, nlgeom=NO, perturbation
*Frequency, eigensolver=Lanczos, sim, acoustic coupling=on, normalization=mass
, , 500., , , 
** 
** BOUNDARY CONDITIONS
** 
** Name: blocage Type: Symmetry/Antisymmetry/Encastre
*Boundary
_PickedSet16, ENCASTRE
** 
** OUTPUT REQUESTS
** 
*Restart, write, frequency=0
** 
** FIELD OUTPUT: F-Output-1
** 
*Output, field
*Node Output, variable=PRESELECT
** 
** HISTORY OUTPUT: H-Output-1
** 
*Output, history
*Energy Output, variable=ALL
*End Step
