*Heading
** Job name: vibration Model name: Model-1
** Generated by: Abaqus/CAE 2025
*Preprint, echo=NO, model=NO, history=NO, contact=NO
**
** PARTS
**
*Part, name=plaque
*Node
      1,   354.797485,    45.202507,           0.
      2,   353.625916,   42.3740807,           0.
      3,   354.797485,   39.5456505,           0.
      4,   357.625916,   38.3740807,           0.
      5,   360.454346,   39.5456505,           0.
      6,   361.625916,   42.3740807,           0.
      7,   360.454346,    45.202507,           0.
      8,   357.625916,   46.3740807,           0.
      9,   39.5456505,    45.202507,           0.
     10,   38.3740807,   42.3740807,           0.
     11,   39.5456505,   39.5456505,           0.
     12,   42.3740807,   38.3740807,           0.
     13,    45.202507,   39.5456505,           0.
     14,   46.3740807,   42.3740807,           0.
     15,    45.202507,    45.202507,           0.
     16,   42.3740807,   46.3740807,           0.
     17,    45.202507,   354.797485,           0.
     18,   46.3740807,   357.625916,           0.
     19,    45.202507,   360.454346,           0.
     20,   42.3740807,   361.625916,           0.
** ... 1105 like lines cut
*Element, type=S3
 1,  968,  125,  147
 2,  159,  134,  151
 3,  130,   28,   27
 4,  995, 1002,  187
 5,  200, 1017,  172
 6,  996,  970,  124
 7, 1017,  161,  172
 8, 1000,  120,  977
 9,  994,  232,  198
10, 1001,  983,  114
11,  257,  790,  210
12,  971,  186,  158
13, 1015, 1012,  284
14,  263,   92,   91
15,  231,  249,  201
16,  154,  235,  219
17,  380,  357,  370
18, 1039,  344,  339
19,  409,  396,  428
20, 1098,  476,  511
** ... 22 like lines cut
*Element, type=S4R
  43,  183,  169,  964,  182
  44,  159,  182,  964,  116
  45,  134,  159,    5,    4
  46,  117,  966,  164,    3
  47,  966,  179,  992,  164
  48,  122,   11,  123,  155
  49,  124,  970,   10,    9
  50,  167,   16,  115,  969
  51,  139,  976, 1003,  149
  52,  142,   23,  139,  148
  53,  115,   16,   15,  968
  54,  186, 1005,  241,  255
  55,  384,  359,  357,  380
  56,  207,  247,  220,  157
  57,  232,  266,  222,  993
  58,  143,    8,    7,  963
  59,  286,  207,  224,  299
  60,  125,   14,  126,  973
  61,  127,  156,  972,   13
  62,  967,  118,    2,    1
** ... 1031 like lines cut
*Nset, nset=_PickedSet2, internal, generate
    1,  1125,     1
*Elset, elset=_PickedSet2, internal, generate
    1,  1093,     1
** Section: tole
*Shell Section, elset=_PickedSet2, material=acier
1., 5
*End Part
**  
**
** ASSEMBLY
**
*Assembly, name=Assembly
**  
*Instance, name=plaque-1, part=plaque
*End Instance
**  
*Node
      1,   42.3740807,   357.625916,           0.
*Node
      2,   42.3740807,   42.3740807,           0.
*Node
      3,   357.625916,   42.3740807,           0.
*Node
      4,   357.625916,   357.625916,           0.
*Nset, nset=_PickedSet9, internal
 1,
*Nset, nset=_PickedSet11, internal
 2,
*Nset, nset=_PickedSet13, internal
 3,
*Nset, nset=_PickedSet15, internal
 4,
*Nset, nset=_PickedSet16, internal, generate
 1,  4,  1
*Elset, elset=__PickedSurf8_E4, internal, instance=plaque-1
 138, 148, 149, 173
*Elset, elset=__PickedSurf8_E2, internal, instance=plaque-1
 151, 168, 172
*Elset, elset=__PickedSurf8_E1, internal, instance=plaque-1
 170,
*Surface, type=ELEMENT, name=_PickedSurf8, internal
__PickedSurf8_E4, E4
__PickedSurf8_E2, E2
__PickedSurf8_E1, E1
*Elset, elset=__PickedSurf10_E3, internal, instance=plaque-1
 49,
*Elset, elset=__PickedSurf10_E2, internal, instance=plaque-1
  53, 155, 157, 158
*Elset, elset=__PickedSurf10_E4, internal, instance=plaque-1
 95,
*Elset, elset=__PickedSurf10_E1, internal, instance=plaque-1
 143, 154
*Surface, type=ELEMENT, name=_PickedSurf10, internal
__PickedSurf10_E3, E3
__PickedSurf10_E2, E2
__PickedSurf10_E4, E4
__PickedSurf10_E1, E1
*Elset, elset=__PickedSurf12_E3, internal, instance=plaque-1
 45, 62, 84
*Elset, elset=__PickedSurf12_E2, internal, instance=plaque-1
  58, 109, 141, 146
*Elset, elset=__PickedSurf12_E1, internal, instance=plaque-1
 153,
*Surface, type=ELEMENT, name=_PickedSurf12, internal
__PickedSurf12_E3, E3
__PickedSurf12_E2, E2
__PickedSurf12_E1, E1
*Elset, elset=__PickedSurf14_E2, internal, instance=plaque-1
   3,  64,  82, 160, 162
*Elset, elset=__PickedSurf14_E4, internal, instance=plaque-1
  67, 100
*Elset, elset=__PickedSurf14_E1, internal, instance=plaque-1
 1061,
*Surface, type=ELEMENT, name=_PickedSurf14, internal
__PickedSurf14_E2, E2
__PickedSurf14_E4, E4
__PickedSurf14_E1, E1
** Constraint: Constraint-1
*Coupling, constraint name=Constraint-1, ref node=_PickedSet9, surface=_PickedSurf8
*Kinematic
** Constraint: Constraint-2
*Coupling, constraint name=Constraint-2, ref node=_PickedSet11, surface=_PickedSurf10
*Kinematic
** Constraint: Constraint-3
*Coupling, constraint name=Constraint-3, ref node=_PickedSet13, surface=_PickedSurf12
*Kinematic
** Constraint: Constraint-4
*Coupling, constraint name=Constraint-4, ref node=_PickedSet15, surface=_PickedSurf14
*Kinematic
*End Assembly
** 
** MATERIALS
** 
*Material, name=acier
*Density
 7.86e-09,
*Elastic
210000., 0.26
** ----------------------------------------------------------------
** 
** STEP: analyse_modale
** 
*Step, name=analyse_modale, nlgeom=NO, perturbation
*Frequency, eigensolver=Lanczos, sim, acoustic coupling=on, normalization=mass
, , 500., , , 
** 
** BOUNDARY CONDITIONS
** 
** Name: blocage Type: Symmetry/Antisymmetry/Encastre
*Boundary
_PickedSet16, ENCASTRE
** 
** OUTPUT REQUESTS
** 
*Restart, write, frequency=0
** 
** FIELD OUTPUT: F-Output-1
** 
*Output, field
*Node Output, variable=PRESELECT
** 
** HISTORY OUTPUT: H-Output-1
** 
*Output, history
*Energy Output, variable=ALL
*End Step
