*Heading
** Job name: vibration Model name: Model-1
** Generated by: Abaqus/CAE 2025
*Preprint, echo=NO, model=NO, history=NO, contact=NO
**
** PARTS
**
*Part, name=plaque
*Node
      1,   385.283966,   14.7160263,           0.
      2,   384.112396,    11.887599,           0.
      3,   385.283966,   9.05917168,           0.
      4,   388.112396,   7.88759947,           0.
      5,   390.940826,   9.05917168,           0.
      6,   392.112396,    11.887599,           0.
      7,   390.940826,   14.7160263,           0.
      8,   388.112396,    15.887599,           0.
      9,   9.05917168,   14.7160263,           0.
     10,   7.88759947,    11.887599,           0.
     11,   9.05917168,   9.05917168,           0.
     12,    11.887599,   7.88759947,           0.
     13,   14.7160263,   9.05917168,           0.
     14,    15.887599,    11.887599,           0.
     15,   14.7160263,   14.7160263,           0.
     16,    11.887599,    15.887599,           0.
     17,   14.7160263,   385.283966,           0.
     18,    15.887599,   388.112396,           0.
     19,   14.7160263,   390.940826,           0.
     20,    11.887599,   392.112396,           0.
** ... 656 like lines cut
*Element, type=S3
 1, 635, 636, 272
 2, 637, 120, 145
 3, 601,  56,  35
 4, 148, 118,  94
 5, 619, 618, 617
 6,   3, 606,   4
 7,  21, 155,  22
 8, 607, 394, 442
 9, 601, 145, 129
10, 146, 600, 120
11, 600, 146, 128
12, 147,  34,  55
13, 149,  34, 147
14, 114, 162, 152
15, 380, 312, 318
16, 443, 393, 340
17, 503, 469, 462
18, 517, 477, 481
19, 585, 575, 584
20, 568, 555, 547
** ... 34 like lines cut
*Element, type=S4R
 55, 134, 150, 620, 605
 56,   5,   4, 606, 150
 57, 606,  33, 620, 150
 58,   2, 152, 132,   3
 59, 147, 144,  13,  12
 60, 149,  11,  10, 148
 61, 594,  94, 118, 593
 62, 143, 131,  24,  23
 63, 119, 138,  15,  14
 64, 272, 275, 634, 635
 65,  50,  49, 175, 218
 66, 212, 209,  39,  38
 67,  14, 130, 142, 119
 68, 124, 591, 136,   8
 69,  13, 144, 130,  14
 70, 140, 591, 124, 117
 71, 220, 185, 184, 230
 72, 156, 160, 153, 135
 73, 623, 151,  93,  92
 74, 126,  19,  18, 127
** ... 576 like lines cut
*Nset, nset=_PickedSet2, internal, generate
   1,  676,    1
*Elset, elset=_PickedSet2, internal, generate
   1,  650,    1
** Section: tole
*Shell Section, elset=_PickedSet2, material=acier
1., 5
*End Part
**  
**
** ASSEMBLY
**
*Assembly, name=Assembly
**  
*Instance, name=plaque-1, part=plaque
*End Instance
**  
*Node
      1,    11.887599,   388.112396,           0.
*Node
      2,    11.887599,    11.887599,           0.
*Node
      3,   388.112396,    11.887599,           0.
*Node
      4,   388.112396,   388.112396,           0.
*Nset, nset=_PickedSet9, internal
 1,
*Nset, nset=_PickedSet11, internal
 2,
*Nset, nset=_PickedSet13, internal
 3,
*Nset, nset=_PickedSet15, internal
 4,
*Nset, nset=_PickedSet16, internal, generate
 1,  4,  1
*Elset, elset=__PickedSurf8_E3, internal, instance=plaque-1
   7,  62, 144, 167
*Elset, elset=__PickedSurf8_E2, internal, instance=plaque-1
  74, 158
*Elset, elset=__PickedSurf8_E4, internal, instance=plaque-1
 75, 77
*Surface, type=ELEMENT, name=_PickedSurf8, internal
__PickedSurf8_E3, E3
__PickedSurf8_E2, E2
__PickedSurf8_E4, E4
*Elset, elset=__PickedSurf10_E3, internal, instance=plaque-1
  59,  63, 151
*Elset, elset=__PickedSurf10_E2, internal, instance=plaque-1
 60,
*Elset, elset=__PickedSurf10_E4, internal, instance=plaque-1
  69, 125
*Elset, elset=__PickedSurf10_E1, internal, instance=plaque-1
 150, 172
*Surface, type=ELEMENT, name=_PickedSurf10, internal
__PickedSurf10_E3, E3
__PickedSurf10_E2, E2
__PickedSurf10_E4, E4
__PickedSurf10_E1, E1
*Elset, elset=__PickedSurf12_E3, internal, instance=plaque-1
 6,
*Elset, elset=__PickedSurf12_E1, internal, instance=plaque-1
  56, 143, 148, 171
*Elset, elset=__PickedSurf12_E4, internal, instance=plaque-1
 58,
*Elset, elset=__PickedSurf12_E2, internal, instance=plaque-1
 140, 160
*Surface, type=ELEMENT, name=_PickedSurf12, internal
__PickedSurf12_E3, E3
__PickedSurf12_E1, E1
__PickedSurf12_E4, E4
__PickedSurf12_E2, E2
*Elset, elset=__PickedSurf14_E2, internal, instance=plaque-1
  79,  83, 155, 165
*Elset, elset=__PickedSurf14_E3, internal, instance=plaque-1, generate
 80,  82,   1
*Elset, elset=__PickedSurf14_E4, internal, instance=plaque-1
 152,
*Surface, type=ELEMENT, name=_PickedSurf14, internal
__PickedSurf14_E2, E2
__PickedSurf14_E3, E3
__PickedSurf14_E4, E4
** Constraint: Constraint-1
*Coupling, constraint name=Constraint-1, ref node=_PickedSet9, surface=_PickedSurf8
*Kinematic
** Constraint: Constraint-2
*Coupling, constraint name=Constraint-2, ref node=_PickedSet11, surface=_PickedSurf10
*Kinematic
** Constraint: Constraint-3
*Coupling, constraint name=Constraint-3, ref node=_PickedSet13, surface=_PickedSurf12
*Kinematic
** Constraint: Constraint-4
*Coupling, constraint name=Constraint-4, ref node=_PickedSet15, surface=_PickedSurf14
*Kinematic
*End Assembly
** 
** MATERIALS
** 
*Material, name=acier
*Density
 7.86e-09,
*Elastic
210000., 0.26
** ----------------------------------------------------------------
** 
** STEP: analyse_modale
** 
*Step, name=analyse_modale, nlgeom=NO, perturbation
*Frequency, eigensolver=Lanczos, sim, acoustic coupling=on, normalization=mass
, , 500., , , 
** 
** BOUNDARY CONDITIONS
** 
** Name: blocage Type: Symmetry/Antisymmetry/Encastre
*Boundary
_PickedSet16, ENCASTRE
** 
** OUTPUT REQUESTS
** 
*Restart, write, frequency=0
** 
** FIELD OUTPUT: F-Output-1
** 
*Output, field
*Node Output, variable=PRESELECT
** 
** HISTORY OUTPUT: H-Output-1
** 
*Output, history
*Energy Output, variable=ALL
*End Step
