*Heading
** Job name: vibration Model name: Model-1
** Generated by: Abaqus/CAE 2025
*Preprint, echo=NO, model=NO, history=NO, contact=NO
**
** PARTS
**
*Part, name=plaque
*Node
      1,   383.509644,    16.490366,           0.
      2,   382.338074,   13.6619387,           0.
      3,   383.509644,   10.8335114,           0.
      4,   386.338074,   9.66193867,           0.
      5,   389.166504,   10.8335114,           0.
      6,   390.338074,   13.6619387,           0.
      7,   389.166504,    16.490366,           0.
      8,   386.338074,   17.6619377,           0.
      9,   10.8335114,    16.490366,           0.
     10,   9.66193867,   13.6619387,           0.
     11,   10.8335114,   10.8335114,           0.
     12,   13.6619387,   9.66193867,           0.
     13,    16.490366,   10.8335114,           0.
     14,   17.6619377,   13.6619387,           0.
     15,    16.490366,    16.490366,           0.
     16,   13.6619387,   17.6619377,           0.
     17,    16.490366,   383.509644,           0.
     18,   17.6619377,   386.338074,           0.
     19,    16.490366,   389.166504,           0.
     20,   13.6619387,   390.338074,           0.
** ... 611 like lines cut
*Element, type=S3
 1, 113, 160, 579
 2, 134,  30,  29
 3, 144, 130,  27
 4, 116, 149, 127
 5, 145,  13,  12
 6, 145,  14,  13
 7,  16, 135,   9
 8, 119,  33, 139
 9, 143, 131,  36
10, 146,  34,  55
11, 143,  36, 112
12, 139,  33,  74
13, 150, 114,  74
14, 119, 140,  33
15, 584,  35, 144
16,  75, 582, 147
17,  74, 114, 139
18, 161, 156, 133
19, 589,  95,  94
20, 223, 597, 153
** ... 16 like lines cut
*Element, type=S4R
 37,   6, 139, 114,   7
 38,   5,   4, 140, 119
 39,  37, 577, 121, 585
 40, 115,   2,   1, 132
 41, 145,  12, 146,  55
 42, 128,  11,  10, 117
 43, 129, 117, 135,  94
 44, 580,  22, 143, 112
 45, 113,  16,  15, 127
 46, 179,  50,  49, 178
 47, 226, 165, 219, 602
 48, 116, 127,  15,  14
 49, 123, 132,   1,   8
 50,   2, 115, 578, 600
 51, 102, 101, 228, 198
 52, 227, 283, 599, 285
 53,  31,  30, 118, 133
 54, 147, 582,  19,  18
 55, 143,  22,  21, 131
 56, 210,  78,  77, 211
** ... 540 like lines cut
*Nset, nset=_PickedSet2, internal, generate
   1,  631,    1
*Elset, elset=_PickedSet2, internal, generate
   1,  596,    1
** Section: tole
*Shell Section, elset=_PickedSet2, material=acier
1., 5
*End Part
**  
**
** ASSEMBLY
**
*Assembly, name=Assembly
**  
*Instance, name=plaque-1, part=plaque
*End Instance
**  
*Node
      1,   13.6619387,   386.338074,           0.
*Node
      2,   13.6619387,   13.6619387,           0.
*Node
      3,   386.338074,   13.6619387,           0.
*Node
      4,   386.338074,   386.338074,           0.
*Nset, nset=_PickedSet9, internal
 1,
*Nset, nset=_PickedSet11, internal
 2,
*Nset, nset=_PickedSet13, internal
 3,
*Nset, nset=_PickedSet15, internal
 4,
*Nset, nset=_PickedSet16, internal, generate
 1,  4,  1
*Elset, elset=__PickedSurf8_E2, internal, instance=plaque-1
 27, 55
*Elset, elset=__PickedSurf8_E3, internal, instance=plaque-1
  54, 134
*Elset, elset=__PickedSurf8_E1, internal, instance=plaque-1
 121, 125, 147
*Elset, elset=__PickedSurf8_E4, internal, instance=plaque-1
 157,
*Surface, type=ELEMENT, name=_PickedSurf8, internal
__PickedSurf8_E2, E2
__PickedSurf8_E3, E3
__PickedSurf8_E4, E4
__PickedSurf8_E1, E1
*Elset, elset=__PickedSurf10_E2, internal, instance=plaque-1
   5,   6,  42,  45, 129
*Elset, elset=__PickedSurf10_E3, internal, instance=plaque-1
   7,  48, 126
*Surface, type=ELEMENT, name=_PickedSurf10, internal
__PickedSurf10_E2, E2
__PickedSurf10_E3, E3
*Elset, elset=__PickedSurf12_E4, internal, instance=plaque-1
  37,  60, 123
*Elset, elset=__PickedSurf12_E1, internal, instance=plaque-1
 38,
*Elset, elset=__PickedSurf12_E2, internal, instance=plaque-1
  40, 135
*Elset, elset=__PickedSurf12_E3, internal, instance=plaque-1
  49, 138
*Surface, type=ELEMENT, name=_PickedSurf12, internal
__PickedSurf12_E4, E4
__PickedSurf12_E1, E1
__PickedSurf12_E2, E2
__PickedSurf12_E3, E3
*Elset, elset=__PickedSurf14_E2, internal, instance=plaque-1
 2,
*Elset, elset=__PickedSurf14_E1, internal, instance=plaque-1
  53, 153, 158
*Elset, elset=__PickedSurf14_E4, internal, instance=plaque-1
  57,  73, 132
*Elset, elset=__PickedSurf14_E3, internal, instance=plaque-1
 131,
*Surface, type=ELEMENT, name=_PickedSurf14, internal
__PickedSurf14_E2, E2
__PickedSurf14_E1, E1
__PickedSurf14_E4, E4
__PickedSurf14_E3, E3
** Constraint: Constraint-1
*Coupling, constraint name=Constraint-1, ref node=_PickedSet9, surface=_PickedSurf8
*Kinematic
** Constraint: Constraint-2
*Coupling, constraint name=Constraint-2, ref node=_PickedSet11, surface=_PickedSurf10
*Kinematic
** Constraint: Constraint-3
*Coupling, constraint name=Constraint-3, ref node=_PickedSet13, surface=_PickedSurf12
*Kinematic
** Constraint: Constraint-4
*Coupling, constraint name=Constraint-4, ref node=_PickedSet15, surface=_PickedSurf14
*Kinematic
*End Assembly
** 
** MATERIALS
** 
*Material, name=acier
*Density
 7.86e-09,
*Elastic
210000., 0.26
** ----------------------------------------------------------------
** 
** STEP: analyse_modale
** 
*Step, name=analyse_modale, nlgeom=NO, perturbation
*Frequency, eigensolver=Lanczos, sim, acoustic coupling=on, normalization=mass
, , 500., , , 
** 
** BOUNDARY CONDITIONS
** 
** Name: blocage Type: Symmetry/Antisymmetry/Encastre
*Boundary
_PickedSet16, ENCASTRE
** 
** OUTPUT REQUESTS
** 
*Restart, write, frequency=0
** 
** FIELD OUTPUT: F-Output-1
** 
*Output, field
*Node Output, variable=PRESELECT
** 
** HISTORY OUTPUT: H-Output-1
** 
*Output, history
*Energy Output, variable=ALL
*End Step
