*Heading
** Job name: vibration Model name: Model-1
** Generated by: Abaqus/CAE 2025
*Preprint, echo=NO, model=NO, history=NO, contact=NO
**
** PARTS
**
*Part, name=plaque
*Node
      1,   348.512573,   51.4874382,           0.
      2,   347.341003,    48.659008,           0.
      3,   348.512573,   45.8305817,           0.
      4,   351.341003,    44.659008,           0.
      5,   354.169403,   45.8305817,           0.
      6,   355.341003,    48.659008,           0.
      7,   354.169403,   51.4874382,           0.
      8,   351.341003,    52.659008,           0.
      9,   45.8305817,   51.4874382,           0.
     10,    44.659008,    48.659008,           0.
     11,   45.8305817,   45.8305817,           0.
     12,    48.659008,    44.659008,           0.
     13,   51.4874382,   45.8305817,           0.
     14,    52.659008,    48.659008,           0.
     15,   51.4874382,   51.4874382,           0.
     16,    48.659008,    52.659008,           0.
     17,   51.4874382,   348.512573,           0.
     18,    52.659008,   351.341003,           0.
     19,   51.4874382,   354.169403,           0.
     20,    48.659008,   355.341003,           0.
** ... 1182 like lines cut
*Element, type=S3
 1,  226, 1072,  166
 2,  165,  197,  124
 3, 1050,  128,  192
 4, 1060,  131,  189
 5,  179,  145,  115
 6,  247,  278,  177
 7,  119, 1067,  169
 8,  190,  117,  149
 9,  150,  144,  114
10,  259,  199,  233
11, 1086,  231,  204
12,  162, 1069,  233
13,  371,  367,  359
14, 1095, 1094,  220
15, 1073,  220,  196
16,  267,  211,  238
17,  250,  320,  223
18,  272,  248,  222
19,  466,  431,  447
20,  282,  233,  257
** ... 36 like lines cut
*Element, type=S4R
  57,  228,  155, 1072,  226
  58,  118,    5,  136,  166
  59, 1046,  137,    4,    3
  60,  119,    3,    2, 1042
  61,  204,  231,  237,  265
  62,  124,   11,  125,  165
  63,  117, 1047,    9,   16
  64, 1054,   23,  138,  195
  65,   22, 1055,  138,   23
  66, 1049,   15,  127,  180
  67,  161,  240,  180,  127
  68,  173,  179,  115, 1054
  69,  330,  311, 1114,  278
  70, 1043,  114,    8,    7
  71,   13,  128, 1050,   14
  72,  175,  242,  178, 1041
  73,  161,  127, 1050,  192
  74,   12, 1051,  129,   13
  75,  120,    7,    6, 1044
  76,  121, 1042,    2,    1
** ... 1101 like lines cut
*Nset, nset=_PickedSet2, internal, generate
    1,  1202,     1
*Elset, elset=_PickedSet2, internal, generate
    1,  1177,     1
** Section: tole
*Shell Section, elset=_PickedSet2, material=acier
1., 5
*End Part
**  
**
** ASSEMBLY
**
*Assembly, name=Assembly
**  
*Instance, name=plaque-1, part=plaque
*End Instance
**  
*Node
      1,    48.659008,   351.341003,           0.
*Node
      2,    48.659008,    48.659008,           0.
*Node
      3,   351.341003,    48.659008,           0.
*Node
      4,   351.341003,   351.341003,           0.
*Nset, nset=_PickedSet9, internal
 1,
*Nset, nset=_PickedSet11, internal
 2,
*Nset, nset=_PickedSet13, internal
 3,
*Nset, nset=_PickedSet15, internal
 4,
*Nset, nset=_PickedSet16, internal, generate
 1,  4,  1
*Elset, elset=__PickedSurf8_E4, internal, instance=plaque-1
  65, 185
*Elset, elset=__PickedSurf8_E3, internal, instance=plaque-1
 83,
*Elset, elset=__PickedSurf8_E2, internal, instance=plaque-1
 156, 167, 169
*Elset, elset=__PickedSurf8_E1, internal, instance=plaque-1
 158, 187
*Surface, type=ELEMENT, name=_PickedSurf8, internal
__PickedSurf8_E4, E4
__PickedSurf8_E3, E3
__PickedSurf8_E2, E2
__PickedSurf8_E1, E1
*Elset, elset=__PickedSurf10_E3, internal, instance=plaque-1
  63, 143
*Elset, elset=__PickedSurf10_E4, internal, instance=plaque-1
  71,  74, 174
*Elset, elset=__PickedSurf10_E2, internal, instance=plaque-1
 160, 171
*Elset, elset=__PickedSurf10_E1, internal, instance=plaque-1
 170,
*Surface, type=ELEMENT, name=_PickedSurf10, internal
__PickedSurf10_E3, E3
__PickedSurf10_E4, E4
__PickedSurf10_E2, E2
__PickedSurf10_E1, E1
*Elset, elset=__PickedSurf12_E3, internal, instance=plaque-1
 59, 70, 76
*Elset, elset=__PickedSurf12_E2, internal, instance=plaque-1
  60,  75, 162
*Elset, elset=__PickedSurf12_E1, internal, instance=plaque-1
 161, 166
*Surface, type=ELEMENT, name=_PickedSurf12, internal
__PickedSurf12_E3, E3
__PickedSurf12_E2, E2
__PickedSurf12_E1, E1
*Elset, elset=__PickedSurf14_E4, internal, instance=plaque-1
  78,  95, 176
*Elset, elset=__PickedSurf14_E3, internal, instance=plaque-1
  90, 113
*Elset, elset=__PickedSurf14_E1, internal, instance=plaque-1
 94,
*Elset, elset=__PickedSurf14_E2, internal, instance=plaque-1
 177, 179
*Surface, type=ELEMENT, name=_PickedSurf14, internal
__PickedSurf14_E4, E4
__PickedSurf14_E3, E3
__PickedSurf14_E2, E2
__PickedSurf14_E1, E1
** Constraint: Constraint-1
*Coupling, constraint name=Constraint-1, ref node=_PickedSet9, surface=_PickedSurf8
*Kinematic
** Constraint: Constraint-2
*Coupling, constraint name=Constraint-2, ref node=_PickedSet11, surface=_PickedSurf10
*Kinematic
** Constraint: Constraint-3
*Coupling, constraint name=Constraint-3, ref node=_PickedSet13, surface=_PickedSurf12
*Kinematic
** Constraint: Constraint-4
*Coupling, constraint name=Constraint-4, ref node=_PickedSet15, surface=_PickedSurf14
*Kinematic
*End Assembly
** 
** MATERIALS
** 
*Material, name=acier
*Density
 7.86e-09,
*Elastic
210000., 0.26
** ----------------------------------------------------------------
** 
** STEP: analyse_modale
** 
*Step, name=analyse_modale, nlgeom=NO, perturbation
*Frequency, eigensolver=Lanczos, sim, acoustic coupling=on, normalization=mass
, , 500., , , 
** 
** BOUNDARY CONDITIONS
** 
** Name: blocage Type: Symmetry/Antisymmetry/Encastre
*Boundary
_PickedSet16, ENCASTRE
** 
** OUTPUT REQUESTS
** 
*Restart, write, frequency=0
** 
** FIELD OUTPUT: F-Output-1
** 
*Output, field
*Node Output, variable=PRESELECT
** 
** HISTORY OUTPUT: H-Output-1
** 
*Output, history
*Energy Output, variable=ALL
*End Step
