*Heading
** Job name: vibration Model name: Model-1
** Generated by: Abaqus/CAE 2025
*Preprint, echo=NO, model=NO, history=NO, contact=NO
**
** PARTS
**
*Part, name=plaque
*Node
      1,   383.311523,    16.688467,           0.
      2,   382.139954,   13.8600397,           0.
      3,   383.311523,   11.0316124,           0.
      4,   386.139954,   9.86003971,           0.
      5,   388.968384,   11.0316124,           0.
      6,   390.139954,   13.8600397,           0.
      7,   388.968384,    16.688467,           0.
      8,   386.139954,   17.8600388,           0.
      9,   11.0316124,    16.688467,           0.
     10,   9.86003971,   13.8600397,           0.
     11,   11.0316124,   11.0316124,           0.
     12,   13.8600397,   9.86003971,           0.
     13,    16.688467,   11.0316124,           0.
     14,   17.8600388,   13.8600397,           0.
     15,    16.688467,    16.688467,           0.
     16,   13.8600397,   17.8600388,           0.
     17,    16.688467,   383.311523,           0.
     18,   17.8600388,   386.139954,           0.
     19,    16.688467,   388.968384,           0.
     20,   13.8600397,   390.139954,           0.
** ... 607 like lines cut
*Element, type=S3
 1, 583,   4,   3
 2, 586,  13,  12
 3, 142, 609, 132
 4, 115,   6,   5
 5, 588, 158, 140
 6,  13, 148, 585
 7, 586,  34,  55
 8, 595,  93, 596
 9, 149,  74,  73
10, 592, 139, 118
11,  20, 605, 142
12, 595, 120, 130
13, 145,  56, 597
14,  16, 584,   9
15, 589,  32, 113
16, 217, 128, 156
17, 155,  38,  37
18, 221, 591,  92
19, 137, 166, 154
20, 599, 158, 137
** ... 32 like lines cut
*Element, type=S4R
 53, 133,   5,   4, 583
 54, 118, 139,  12,  11
 55, 159, 114, 141, 169
 56,  21, 132, 143,  22
 57,  22, 143, 587,  23
 58, 114,  16,  15, 135
 59,  50,  49, 181, 225
 60,  40,  39, 214, 171
 61, 117, 135,  15,  14
 62, 127, 125,   1,   8
 63, 228, 185, 184, 291
 64,  59,  58, 213, 271
 65, 131,  18, 129, 150
 66, 143, 608, 607, 587
 67, 129,  18,  17, 126
 68, 126,  17,  24, 122
 69, 215,  78,  77, 192
 70, 119, 124,  31,  30
 71, 144, 596,  29,  28
 72, 120,  27, 121, 130
** ... 528 like lines cut
*Nset, nset=_PickedSet2, internal, generate
   1,  627,    1
*Elset, elset=_PickedSet2, internal, generate
   1,  600,    1
** Section: tole
*Shell Section, elset=_PickedSet2, material=acier
1., 5
*End Part
**  
**
** ASSEMBLY
**
*Assembly, name=Assembly
**  
*Instance, name=plaque-1, part=plaque
*End Instance
**  
*Node
      1,   13.8600397,   386.139954,           0.
*Node
      2,   13.8600397,   13.8600397,           0.
*Node
      3,   386.139954,   13.8600397,           0.
*Node
      4,   386.139954,   386.139954,           0.
*Nset, nset=_PickedSet9, internal
 1,
*Nset, nset=_PickedSet11, internal
 2,
*Nset, nset=_PickedSet13, internal
 3,
*Nset, nset=_PickedSet15, internal
 4,
*Nset, nset=_PickedSet16, internal, generate
 1,  4,  1
*Elset, elset=__PickedSurf8_E3, internal, instance=plaque-1
  39, 162
*Elset, elset=__PickedSurf8_E4, internal, instance=plaque-1
  56,  57, 107
*Elset, elset=__PickedSurf8_E2, internal, instance=plaque-1
  67,  68, 151
*Surface, type=ELEMENT, name=_PickedSurf8, internal
__PickedSurf8_E3, E3
__PickedSurf8_E4, E4
__PickedSurf8_E2, E2
*Elset, elset=__PickedSurf10_E2, internal, instance=plaque-1
   2,  36,  58, 122
*Elset, elset=__PickedSurf10_E3, internal, instance=plaque-1
  14,  54,  61, 141
*Surface, type=ELEMENT, name=_PickedSurf10, internal
__PickedSurf10_E2, E2
__PickedSurf10_E3, E3
*Elset, elset=__PickedSurf12_E2, internal, instance=plaque-1
  1,  4, 53
*Elset, elset=__PickedSurf12_E3, internal, instance=plaque-1
 62, 76
*Elset, elset=__PickedSurf12_E1, internal, instance=plaque-1
 77,
*Elset, elset=__PickedSurf12_E4, internal, instance=plaque-1
  78, 585
*Surface, type=ELEMENT, name=_PickedSurf12, internal
__PickedSurf12_E2, E2
__PickedSurf12_E3, E3
__PickedSurf12_E4, E4
__PickedSurf12_E1, E1
*Elset, elset=__PickedSurf14_E3, internal, instance=plaque-1
  70,  71, 144
*Elset, elset=__PickedSurf14_E4, internal, instance=plaque-1
  73, 147
*Elset, elset=__PickedSurf14_E2, internal, instance=plaque-1
 75,
*Elset, elset=__PickedSurf14_E1, internal, instance=plaque-1
  93, 145
*Surface, type=ELEMENT, name=_PickedSurf14, internal
__PickedSurf14_E3, E3
__PickedSurf14_E4, E4
__PickedSurf14_E2, E2
__PickedSurf14_E1, E1
** Constraint: Constraint-1
*Coupling, constraint name=Constraint-1, ref node=_PickedSet9, surface=_PickedSurf8
*Kinematic
** Constraint: Constraint-2
*Coupling, constraint name=Constraint-2, ref node=_PickedSet11, surface=_PickedSurf10
*Kinematic
** Constraint: Constraint-3
*Coupling, constraint name=Constraint-3, ref node=_PickedSet13, surface=_PickedSurf12
*Kinematic
** Constraint: Constraint-4
*Coupling, constraint name=Constraint-4, ref node=_PickedSet15, surface=_PickedSurf14
*Kinematic
*End Assembly
** 
** MATERIALS
** 
*Material, name=acier
*Density
 7.86e-09,
*Elastic
210000., 0.26
** ----------------------------------------------------------------
** 
** STEP: analyse_modale
** 
*Step, name=analyse_modale, nlgeom=NO, perturbation
*Frequency, eigensolver=Lanczos, sim, acoustic coupling=on, normalization=mass
, , 500., , , 
** 
** BOUNDARY CONDITIONS
** 
** Name: blocage Type: Symmetry/Antisymmetry/Encastre
*Boundary
_PickedSet16, ENCASTRE
** 
** OUTPUT REQUESTS
** 
*Restart, write, frequency=0
** 
** FIELD OUTPUT: F-Output-1
** 
*Output, field
*Node Output, variable=PRESELECT
** 
** HISTORY OUTPUT: H-Output-1
** 
*Output, history
*Energy Output, variable=ALL
*End Step
