*Heading
** Job name: vibration Model name: Model-1
** Generated by: Abaqus/CAE 2025
*Preprint, echo=NO, model=NO, history=NO, contact=NO
**
** PARTS
**
*Part, name=plaque
*Node
      1,   390.840515,   9.15947819,           0.
      2,   389.668945,    6.3310504,           0.
      3,   393.668945,   2.33105063,           0.
      4,   396.497375,   3.50262356,           0.
      5,   397.668945,    6.3310504,           0.
      6,   396.497375,   9.15947819,           0.
      7,   393.668945,   10.3310509,           0.
      8,   2.33105063,    6.3310504,           0.
      9,   3.50262356,   3.50262356,           0.
     10,    6.3310504,   2.33105063,           0.
     11,   9.15947819,   3.50262356,           0.
     12,   10.3310509,    6.3310504,           0.
     13,   9.15947819,   9.15947819,           0.
     14,    6.3310504,   10.3310509,           0.
     15,   9.15947819,   390.840515,           0.
     16,   10.3310509,   393.668945,           0.
     17,    6.3310504,   397.668945,           0.
     18,   3.50262356,   396.497375,           0.
     19,   2.33105063,   393.668945,           0.
     20,   3.50262356,   390.840515,           0.
** ... 576 like lines cut
*Element, type=S3
 1, 577,  29,   5
 2,   4, 577,   5
 3, 557,  30,  10
 4, 557,   8,  30
 5, 553,  13, 115
 6, 588, 115, 554
 7, 556,  11,  10
 8,   5, 586,   6
 9, 564, 119,  56
10, 558, 116,  75
11, 559, 560,  17
12, 566, 565,  31
13,  33, 550,   3
14, 565,  56,  31
15, 552,  94,  30
16, 570, 578,  25
17, 563, 579,  20
18, 587,   6,  74
19, 119,  28, 113
20, 122, 589, 583
** ... 54 like lines cut
*Element, type=S4R
 75, 550,  33, 549,  37
 76, 554, 555,  55, 121
 77, 551,  34,  14, 120
 78,  94, 551, 120, 122
 79,  19, 562, 563,  20
 80, 571, 165, 584, 180
 81, 207, 151, 150, 242
 82, 304, 217, 219, 365
 83, 114, 575,  37, 549
 84, 101, 154, 155, 102
 85, 224, 226, 305, 256
 86, 178, 569, 149, 248
 87,  17,  35, 558, 559
 88, 573, 562,  19, 561
 89,  24, 568, 570,  25
 90, 117, 116,  16,  15
 91, 174,  15,  21, 175
 92, 236, 238, 303, 257
 93, 173, 172,  27,  26
 94,  24, 567, 574, 568
** ... 486 like lines cut
*Nset, nset=_PickedSet2, internal, generate
   1,  596,    1
*Elset, elset=_PickedSet2, internal, generate
   1,  580,    1
** Section: tole
*Shell Section, elset=_PickedSet2, material=acier
1., 5
*End Part
**  
**
** ASSEMBLY
**
*Assembly, name=Assembly
**  
*Instance, name=plaque-1, part=plaque
*End Instance
**  
*Node
      1,    6.3310504,   393.668945,           0.
*Node
      2,    6.3310504,    6.3310504,           0.
*Node
      3,   393.668945,    6.3310504,           0.
*Node
      4,   393.668945,   393.668945,           0.
*Nset, nset=_PickedSet9, internal
 1,
*Nset, nset=_PickedSet11, internal
 2,
*Nset, nset=_PickedSet13, internal
 3,
*Nset, nset=_PickedSet15, internal
 4,
*Nset, nset=_PickedSet16, internal, generate
 1,  4,  1
*Elset, elset=__PickedSurf8_E3, internal, instance=plaque-1
 43, 49, 90
*Elset, elset=__PickedSurf8_E2, internal, instance=plaque-1
  48,  91, 168
*Elset, elset=__PickedSurf8_E4, internal, instance=plaque-1
 79,
*Elset, elset=__PickedSurf8_E1, internal, instance=plaque-1
 87,
*Surface, type=ELEMENT, name=_PickedSurf8, internal
__PickedSurf8_E3, E3
__PickedSurf8_E2, E2
__PickedSurf8_E4, E4
__PickedSurf8_E1, E1
*Elset, elset=__PickedSurf10_E2, internal, instance=plaque-1
   7,  32,  33,  37,  39,  77, 166
*Elset, elset=__PickedSurf10_E4, internal, instance=plaque-1
 163,
*Surface, type=ELEMENT, name=_PickedSurf10, internal
__PickedSurf10_E2, E2
__PickedSurf10_E4, E4
*Elset, elset=__PickedSurf12_E3, internal, instance=plaque-1
  2,  8, 13, 24
*Elset, elset=__PickedSurf12_E2, internal, instance=plaque-1
  28, 572
*Elset, elset=__PickedSurf12_E1, internal, instance=plaque-1
 164,
*Elset, elset=__PickedSurf12_E4, internal, instance=plaque-1
 169,
*Surface, type=ELEMENT, name=_PickedSurf12, internal
__PickedSurf12_E3, E3
__PickedSurf12_E2, E2
__PickedSurf12_E4, E4
__PickedSurf12_E1, E1
*Elset, elset=__PickedSurf14_E2, internal, instance=plaque-1
 52, 56, 95, 96
*Elset, elset=__PickedSurf14_E3, internal, instance=plaque-1
 58, 93
*Elset, elset=__PickedSurf14_E4, internal, instance=plaque-1
  89, 577
*Surface, type=ELEMENT, name=_PickedSurf14, internal
__PickedSurf14_E2, E2
__PickedSurf14_E3, E3
__PickedSurf14_E4, E4
** Constraint: Constraint-1
*Coupling, constraint name=Constraint-1, ref node=_PickedSet9, surface=_PickedSurf8
*Kinematic
** Constraint: Constraint-2
*Coupling, constraint name=Constraint-2, ref node=_PickedSet11, surface=_PickedSurf10
*Kinematic
** Constraint: Constraint-3
*Coupling, constraint name=Constraint-3, ref node=_PickedSet13, surface=_PickedSurf12
*Kinematic
** Constraint: Constraint-4
*Coupling, constraint name=Constraint-4, ref node=_PickedSet15, surface=_PickedSurf14
*Kinematic
*End Assembly
** 
** MATERIALS
** 
*Material, name=acier
*Density
 7.86e-09,
*Elastic
210000., 0.26
** ----------------------------------------------------------------
** 
** STEP: analyse_modale
** 
*Step, name=analyse_modale, nlgeom=NO, perturbation
*Frequency, eigensolver=Lanczos, sim, acoustic coupling=on, normalization=mass
, , 500., , , 
** 
** BOUNDARY CONDITIONS
** 
** Name: blocage Type: Symmetry/Antisymmetry/Encastre
*Boundary
_PickedSet16, ENCASTRE
** 
** OUTPUT REQUESTS
** 
*Restart, write, frequency=0
** 
** FIELD OUTPUT: F-Output-1
** 
*Output, field
*Node Output, variable=PRESELECT
** 
** HISTORY OUTPUT: H-Output-1
** 
*Output, history
*Energy Output, variable=ALL
*End Step
