*Heading
** Job name: vibration Model name: Model-1
** Generated by: Abaqus/CAE 2025
*Preprint, echo=NO, model=NO, history=NO, contact=NO
**
** PARTS
**
*Part, name=plaque
*Node
      1,   366.609589,   33.3904114,           0.
      2,   365.438019,   30.5619831,           0.
      3,   366.609589,   27.7335548,           0.
      4,   369.438019,   26.5619831,           0.
      5,   372.266449,   27.7335548,           0.
      6,   373.438019,   30.5619831,           0.
      7,   372.266449,   33.3904114,           0.
      8,   369.438019,   34.5619812,           0.
      9,   27.7335548,   33.3904114,           0.
     10,   26.5619831,   30.5619831,           0.
     11,   27.7335548,   27.7335548,           0.
     12,   30.5619831,   26.5619831,           0.
     13,   33.3904114,   27.7335548,           0.
     14,   34.5619812,   30.5619831,           0.
     15,   33.3904114,   33.3904114,           0.
     16,   30.5619831,   34.5619812,           0.
     17,   33.3904114,   366.609589,           0.
     18,   34.5619812,   369.438019,           0.
     19,   33.3904114,   372.266449,           0.
     20,   30.5619831,   373.438019,           0.
** ... 775 like lines cut
*Element, type=S3
 1, 698, 153,  27
 2, 686, 713, 137
 3, 690, 718, 123
 4,  27, 153,  28
 5, 195, 114, 138
 6, 196, 182, 139
 7, 722, 709, 181
 8, 204, 221, 169
 9, 194, 200, 696
10, 150, 179, 176
11, 180,  74,  73
12, 183, 124, 151
13, 193, 703, 183
14, 184, 112, 111
15, 241, 226, 208
16, 375, 252, 319
17, 317, 323, 250
18, 743, 354, 398
19, 761, 445, 444
20, 755, 507, 548
** ... 18 like lines cut
*Element, type=S4R
 39, 178,  74, 180, 142
 40, 119, 142, 180, 138
 41, 129, 154,   5,   4
 42, 118, 155,   3,   2
 43, 168, 120, 164, 712
 44, 692, 691, 150, 176
 45, 122, 148,  10,   9
 46, 116, 688, 170,  16
 47,  23, 159, 134,  24
 48, 132, 159,  23,  22
 49, 116,  16,  15, 687
 50, 174, 718, 690, 717
 51, 201, 174, 213, 230
 52, 224, 252, 727, 219
 53, 140, 687, 123, 718
 54, 137,   8, 114, 686
 55, 123,  14, 124, 690
 56,   6, 119, 138,   7
 57, 118,   2, 120, 168
 58, 332, 402, 405, 346
** ... 703 like lines cut
*Nset, nset=_PickedSet2, internal, generate
   1,  795,    1
*Elset, elset=_PickedSet2, internal, generate
   1,  761,    1
** Section: tole
*Shell Section, elset=_PickedSet2, material=acier
1., 5
*End Part
**  
**
** ASSEMBLY
**
*Assembly, name=Assembly
**  
*Instance, name=plaque-1, part=plaque
*End Instance
**  
*Node
      1,   30.5619831,   369.438019,           0.
*Node
      2,   30.5619831,   30.5619831,           0.
*Node
      3,   369.438019,   30.5619831,           0.
*Node
      4,   369.438019,   369.438019,           0.
*Nset, nset=_PickedSet9, internal
 1,
*Nset, nset=_PickedSet11, internal
 2,
*Nset, nset=_PickedSet13, internal
 3,
*Nset, nset=_PickedSet15, internal
 4,
*Nset, nset=_PickedSet16, internal, generate
 1,  4,  1
*Elset, elset=__PickedSurf8_E4, internal, instance=plaque-1
 47,
*Elset, elset=__PickedSurf8_E3, internal, instance=plaque-1
  48,  64,  65, 104
*Elset, elset=__PickedSurf8_E2, internal, instance=plaque-1
  62, 102, 154
*Surface, type=ELEMENT, name=_PickedSurf8, internal
__PickedSurf8_E4, E4
__PickedSurf8_E3, E3
__PickedSurf8_E2, E2
*Elset, elset=__PickedSurf10_E3, internal, instance=plaque-1
 45, 85
*Elset, elset=__PickedSurf10_E2, internal, instance=plaque-1
  49, 145
*Elset, elset=__PickedSurf10_E4, internal, instance=plaque-1
 121,
*Elset, elset=__PickedSurf10_E1, internal, instance=plaque-1
 138, 143, 734
*Surface, type=ELEMENT, name=_PickedSurf10, internal
__PickedSurf10_E3, E3
__PickedSurf10_E2, E2
__PickedSurf10_E4, E4
__PickedSurf10_E1, E1
*Elset, elset=__PickedSurf12_E3, internal, instance=plaque-1
  41,  42,  98, 136
*Elset, elset=__PickedSurf12_E4, internal, instance=plaque-1
  56,  75,  99, 153
*Surface, type=ELEMENT, name=_PickedSurf12, internal
__PickedSurf12_E3, E3
__PickedSurf12_E4, E4
*Elset, elset=__PickedSurf14_E3, internal, instance=plaque-1
   4,  88, 117
*Elset, elset=__PickedSurf14_E2, internal, instance=plaque-1
  70, 134, 148, 149
*Elset, elset=__PickedSurf14_E4, internal, instance=plaque-1
 135,
*Surface, type=ELEMENT, name=_PickedSurf14, internal
__PickedSurf14_E3, E3
__PickedSurf14_E2, E2
__PickedSurf14_E4, E4
** Constraint: Constraint-1
*Coupling, constraint name=Constraint-1, ref node=_PickedSet9, surface=_PickedSurf8
*Kinematic
** Constraint: Constraint-2
*Coupling, constraint name=Constraint-2, ref node=_PickedSet11, surface=_PickedSurf10
*Kinematic
** Constraint: Constraint-3
*Coupling, constraint name=Constraint-3, ref node=_PickedSet13, surface=_PickedSurf12
*Kinematic
** Constraint: Constraint-4
*Coupling, constraint name=Constraint-4, ref node=_PickedSet15, surface=_PickedSurf14
*Kinematic
*End Assembly
** 
** MATERIALS
** 
*Material, name=acier
*Density
 7.86e-09,
*Elastic
210000., 0.26
** ----------------------------------------------------------------
** 
** STEP: analyse_modale
** 
*Step, name=analyse_modale, nlgeom=NO, perturbation
*Frequency, eigensolver=Lanczos, sim, acoustic coupling=on, normalization=mass
, , 500., , , 
** 
** BOUNDARY CONDITIONS
** 
** Name: blocage Type: Symmetry/Antisymmetry/Encastre
*Boundary
_PickedSet16, ENCASTRE
** 
** OUTPUT REQUESTS
** 
*Restart, write, frequency=0
** 
** FIELD OUTPUT: F-Output-1
** 
*Output, field
*Node Output, variable=PRESELECT
** 
** HISTORY OUTPUT: H-Output-1
** 
*Output, history
*Energy Output, variable=ALL
*End Step
