*Heading
** Job name: vibration Model name: Model-1
** Generated by: Abaqus/CAE 2025
*Preprint, echo=NO, model=NO, history=NO, contact=NO
**
** PARTS
**
*Part, name=plaque
*Node
      1,   373.951721,   26.0482864,           0.
      2,   372.780151,   23.2198601,           0.
      3,   373.951721,   20.3914337,           0.
      4,   376.780151,   19.2198601,           0.
      5,   379.608582,   20.3914337,           0.
      6,   380.780151,   23.2198601,           0.
      7,   379.608582,   26.0482864,           0.
      8,   376.780151,   27.2198601,           0.
      9,   20.3914337,   26.0482864,           0.
     10,   19.2198601,   23.2198601,           0.
     11,   20.3914337,   20.3914337,           0.
     12,   23.2198601,   19.2198601,           0.
     13,   26.0482864,   20.3914337,           0.
     14,   27.2198601,   23.2198601,           0.
     15,   26.0482864,   26.0482864,           0.
     16,   23.2198601,   27.2198601,           0.
     17,   26.0482864,   373.951721,           0.
     18,   27.2198601,   376.780151,           0.
     19,   26.0482864,   379.608582,           0.
     20,   23.2198601,   380.780151,           0.
** ... 712 like lines cut
*Element, type=S3
 1, 120,  20,  19
 2, 645, 128, 121
 3, 178,  56,  35
 4, 633, 177,  74
 5,   4, 139,   5
 6, 120, 121,  20
 7, 152,  19,  18
 8, 149, 129, 134
 9, 112, 622,  36
10, 648,  55,  54
11, 633, 145, 177
12, 620, 116, 637
13, 173, 206, 211
14, 202, 172, 190
15,  93, 156, 137
16, 669, 628,  95
17, 648,  54, 158
18,  38, 167, 253
19, 176,  34,  55
20, 201, 197, 110
** ... 24 like lines cut
*Element, type=S4R
 45, 118, 145, 633, 634
 46, 632, 177, 139, 146
 47, 177,  37,  33,  74
 48, 119, 146,   3,   2
 49,  12, 143, 166,  13
 50, 616, 185,  11,  10
 51,  94,  34, 176, 655
 52,   9, 142, 616,  10
 53,  23, 116, 620,  24
 54, 129,  16,  15, 134
 55, 148, 129, 149, 159
 56, 230, 296, 297, 228
 57, 134,  15,  14, 122
 58, 617, 140,  13, 166
 59, 117, 132,   7,   6
 60, 131, 154,   2,   1
 61, 270, 102, 101, 280
 62,  59,  58, 237, 268
 63,  29,  28, 124, 123
 64, 147, 120,  19, 152
** ... 637 like lines cut
*Nset, nset=_PickedSet2, internal, generate
   1,  732,    1
*Elset, elset=_PickedSet2, internal, generate
   1,  701,    1
** Section: tole
*Shell Section, elset=_PickedSet2, material=acier
1., 5
*End Part
**  
**
** ASSEMBLY
**
*Assembly, name=Assembly
**  
*Instance, name=plaque-1, part=plaque
*End Instance
**  
*Node
      1,   23.2198601,   376.780151,           0.
*Node
      2,   23.2198601,   23.2198601,           0.
*Node
      3,   376.780151,   23.2198601,           0.
*Node
      4,   376.780151,   376.780151,           0.
*Nset, nset=_PickedSet9, internal
 1,
*Nset, nset=_PickedSet11, internal
 2,
*Nset, nset=_PickedSet13, internal
 3,
*Nset, nset=_PickedSet15, internal
 4,
*Nset, nset=_PickedSet16, internal, generate
 1,  4,  1
*Elset, elset=__PickedSurf8_E2, internal, instance=plaque-1
   1,   7, 101, 132
*Elset, elset=__PickedSurf8_E4, internal, instance=plaque-1
  53, 127
*Elset, elset=__PickedSurf8_E1, internal, instance=plaque-1
 136,
*Elset, elset=__PickedSurf8_E3, internal, instance=plaque-1
 148,
*Surface, type=ELEMENT, name=_PickedSurf8, internal
__PickedSurf8_E2, E2
__PickedSurf8_E4, E4
__PickedSurf8_E1, E1
__PickedSurf8_E3, E3
*Elset, elset=__PickedSurf10_E4, internal, instance=plaque-1
 49, 52
*Elset, elset=__PickedSurf10_E3, internal, instance=plaque-1
  50, 114
*Elset, elset=__PickedSurf10_E2, internal, instance=plaque-1
  54,  57, 141
*Elset, elset=__PickedSurf10_E1, internal, instance=plaque-1
 138,
*Surface, type=ELEMENT, name=_PickedSurf10, internal
__PickedSurf10_E4, E4
__PickedSurf10_E3, E3
__PickedSurf10_E2, E2
__PickedSurf10_E1, E1
*Elset, elset=__PickedSurf12_E3, internal, instance=plaque-1
  5, 48, 59, 60
*Elset, elset=__PickedSurf12_E2, internal, instance=plaque-1
  72, 130, 134, 135
*Surface, type=ELEMENT, name=_PickedSurf12, internal
__PickedSurf12_E3, E3
__PickedSurf12_E2, E2
*Elset, elset=__PickedSurf14_E1, internal, instance=plaque-1
 63,
*Elset, elset=__PickedSurf14_E3, internal, instance=plaque-1
  68,  70,  71, 146
*Elset, elset=__PickedSurf14_E2, internal, instance=plaque-1
  88, 145
*Elset, elset=__PickedSurf14_E4, internal, instance=plaque-1
 90,
*Surface, type=ELEMENT, name=_PickedSurf14, internal
__PickedSurf14_E1, E1
__PickedSurf14_E3, E3
__PickedSurf14_E2, E2
__PickedSurf14_E4, E4
** Constraint: Constraint-1
*Coupling, constraint name=Constraint-1, ref node=_PickedSet9, surface=_PickedSurf8
*Kinematic
** Constraint: Constraint-2
*Coupling, constraint name=Constraint-2, ref node=_PickedSet11, surface=_PickedSurf10
*Kinematic
** Constraint: Constraint-3
*Coupling, constraint name=Constraint-3, ref node=_PickedSet13, surface=_PickedSurf12
*Kinematic
** Constraint: Constraint-4
*Coupling, constraint name=Constraint-4, ref node=_PickedSet15, surface=_PickedSurf14
*Kinematic
*End Assembly
** 
** MATERIALS
** 
*Material, name=acier
*Density
 7.86e-09,
*Elastic
210000., 0.26
** ----------------------------------------------------------------
** 
** STEP: analyse_modale
** 
*Step, name=analyse_modale, nlgeom=NO, perturbation
*Frequency, eigensolver=Lanczos, sim, acoustic coupling=on, normalization=mass
, , 500., , , 
** 
** BOUNDARY CONDITIONS
** 
** Name: blocage Type: Symmetry/Antisymmetry/Encastre
*Boundary
_PickedSet16, ENCASTRE
** 
** OUTPUT REQUESTS
** 
*Restart, write, frequency=0
** 
** FIELD OUTPUT: F-Output-1
** 
*Output, field
*Node Output, variable=PRESELECT
** 
** HISTORY OUTPUT: H-Output-1
** 
*Output, history
*Energy Output, variable=ALL
*End Step
