*Heading
** Job name: vibration Model name: Model-1
** Generated by: Abaqus/CAE 2025
*Preprint, echo=NO, model=NO, history=NO, contact=NO
**
** PARTS
**
*Part, name=plaque
*Node
      1,   361.659912,   38.3401031,           0.
      2,   360.488312,   35.5116768,           0.
      3,   361.659912,   32.6832504,           0.
      4,   364.488312,   31.5116768,           0.
      5,   367.316742,   32.6832504,           0.
      6,   368.488312,   35.5116768,           0.
      7,   367.316742,   38.3401031,           0.
      8,   364.488312,   39.5116768,           0.
      9,   32.6832504,   38.3401031,           0.
     10,   31.5116768,   35.5116768,           0.
     11,   32.6832504,   32.6832504,           0.
     12,   35.5116768,   31.5116768,           0.
     13,   38.3401031,   32.6832504,           0.
     14,   39.5116768,   35.5116768,           0.
     15,   38.3401031,   38.3401031,           0.
     16,   35.5116768,   39.5116768,           0.
     17,   38.3401031,   361.659912,           0.
     18,   39.5116768,   364.488312,           0.
     19,   38.3401031,   367.316742,           0.
     20,   35.5116768,   368.488312,           0.
** ... 812 like lines cut
*Element, type=S3
 1, 119,   1, 113
 2, 728, 135, 170
 3, 129, 147,  28
 4, 727, 171, 162
 5, 155,  12,  11
 6, 725,  11,  10
 7, 134, 192, 148
 8, 751, 210, 184
 9, 734, 214, 188
10, 746, 212, 167
11, 145, 248, 743
12, 160, 152, 116
13, 120, 178, 153
14, 129, 752, 147
15, 211,  93,  92
16, 219,  54,  53
17,  13, 122, 154
18, 222, 257, 233
19, 740, 209, 205
20, 190, 161, 265
** ... 24 like lines cut
*Element, type=S4R
 45, 745, 187, 206, 185
 46, 160, 738, 187, 152
 47, 160,   4, 150, 738
 48,   3, 132, 150,   4
 49, 117,   3,   2, 721
 50, 155, 189, 194, 739
 51, 123, 157,  10,   9
 52,  16, 722, 136,   9
 53, 112, 111, 192, 218
 54, 148, 138,  23,  22
 55,  15, 723, 115,  16
 56, 339, 293, 287, 355
 57, 299, 267,  41,  40
 58, 723, 124, 176, 750
 59, 139,   8,   7, 167
 60,  14, 124, 723,  15
 61, 118, 116, 152, 745
 62, 333, 272, 295, 367
 63, 328, 288,  60,  59
 64, 174, 128, 145, 743
** ... 737 like lines cut
*Nset, nset=_PickedSet2, internal, generate
   1,  832,    1
*Elset, elset=_PickedSet2, internal, generate
   1,  801,    1
** Section: tole
*Shell Section, elset=_PickedSet2, material=acier
1., 5
*End Part
**  
**
** ASSEMBLY
**
*Assembly, name=Assembly
**  
*Instance, name=plaque-1, part=plaque
*End Instance
**  
*Node
      1,   35.5116768,   364.488312,           0.
*Node
      2,   35.5116768,   35.5116768,           0.
*Node
      3,   364.488312,   35.5116768,           0.
*Node
      4,   364.488312,   364.488312,           0.
*Nset, nset=_PickedSet9, internal
 1,
*Nset, nset=_PickedSet11, internal
 2,
*Nset, nset=_PickedSet13, internal
 3,
*Nset, nset=_PickedSet15, internal
 4,
*Nset, nset=_PickedSet16, internal, generate
 1,  4,  1
*Elset, elset=__PickedSurf8_E3, internal, instance=plaque-1
  54,  69, 136
*Elset, elset=__PickedSurf8_E4, internal, instance=plaque-1
 135, 146, 164
*Elset, elset=__PickedSurf8_E2, internal, instance=plaque-1
 145, 147
*Surface, type=ELEMENT, name=_PickedSurf8, internal
__PickedSurf8_E3, E3
__PickedSurf8_E4, E4
__PickedSurf8_E2, E2
*Elset, elset=__PickedSurf10_E2, internal, instance=plaque-1
   5,   6,  95, 149
*Elset, elset=__PickedSurf10_E3, internal, instance=plaque-1
 51,
*Elset, elset=__PickedSurf10_E4, internal, instance=plaque-1
 52, 55, 60
*Surface, type=ELEMENT, name=_PickedSurf10, internal
__PickedSurf10_E2, E2
__PickedSurf10_E3, E3
__PickedSurf10_E4, E4
*Elset, elset=__PickedSurf12_E4, internal, instance=plaque-1
  48, 143
*Elset, elset=__PickedSurf12_E2, internal, instance=plaque-1
  49,  59, 139
*Elset, elset=__PickedSurf12_E3, internal, instance=plaque-1
  80, 110
*Elset, elset=__PickedSurf12_E1, internal, instance=plaque-1
 188,
*Surface, type=ELEMENT, name=_PickedSurf12, internal
__PickedSurf12_E4, E4
__PickedSurf12_E2, E2
__PickedSurf12_E3, E3
__PickedSurf12_E1, E1
*Elset, elset=__PickedSurf14_E2, internal, instance=plaque-1
  65,  77, 157
*Elset, elset=__PickedSurf14_E3, internal, instance=plaque-1
 73, 98
*Elset, elset=__PickedSurf14_E4, internal, instance=plaque-1
  76, 140
*Elset, elset=__PickedSurf14_E1, internal, instance=plaque-1
 79,
*Surface, type=ELEMENT, name=_PickedSurf14, internal
__PickedSurf14_E2, E2
__PickedSurf14_E3, E3
__PickedSurf14_E4, E4
__PickedSurf14_E1, E1
** Constraint: Constraint-1
*Coupling, constraint name=Constraint-1, ref node=_PickedSet9, surface=_PickedSurf8
*Kinematic
** Constraint: Constraint-2
*Coupling, constraint name=Constraint-2, ref node=_PickedSet11, surface=_PickedSurf10
*Kinematic
** Constraint: Constraint-3
*Coupling, constraint name=Constraint-3, ref node=_PickedSet13, surface=_PickedSurf12
*Kinematic
** Constraint: Constraint-4
*Coupling, constraint name=Constraint-4, ref node=_PickedSet15, surface=_PickedSurf14
*Kinematic
*End Assembly
** 
** MATERIALS
** 
*Material, name=acier
*Density
 7.86e-09,
*Elastic
210000., 0.26
** ----------------------------------------------------------------
** 
** STEP: analyse_modale
** 
*Step, name=analyse_modale, nlgeom=NO, perturbation
*Frequency, eigensolver=Lanczos, sim, acoustic coupling=on, normalization=mass
, , 500., , , 
** 
** BOUNDARY CONDITIONS
** 
** Name: blocage Type: Symmetry/Antisymmetry/Encastre
*Boundary
_PickedSet16, ENCASTRE
** 
** OUTPUT REQUESTS
** 
*Restart, write, frequency=0
** 
** FIELD OUTPUT: F-Output-1
** 
*Output, field
*Node Output, variable=PRESELECT
** 
** HISTORY OUTPUT: H-Output-1
** 
*Output, history
*Energy Output, variable=ALL
*End Step
