*Heading
** Job name: vibration Model name: Model-1
** Generated by: Abaqus/CAE 2025
*Preprint, echo=NO, model=NO, history=NO, contact=NO
**
** PARTS
**
*Part, name=plaque
*Node
      1,   355.788635,   44.2113686,           0.
      2,   354.617065,   41.3829422,           0.
      3,   355.788635,    38.554512,           0.
      4,   358.617065,   37.3829422,           0.
      5,   361.445496,    38.554512,           0.
      6,   362.617065,   41.3829422,           0.
      7,   361.445496,   44.2113686,           0.
      8,   358.617065,   45.3829422,           0.
      9,    38.554512,   44.2113686,           0.
     10,   37.3829422,   41.3829422,           0.
     11,    38.554512,    38.554512,           0.
     12,   41.3829422,   37.3829422,           0.
     13,   44.2113686,    38.554512,           0.
     14,   45.3829422,   41.3829422,           0.
     15,   44.2113686,   44.2113686,           0.
     16,   41.3829422,   45.3829422,           0.
     17,   44.2113686,   355.788635,           0.
     18,   45.3829422,   358.617065,           0.
     19,   44.2113686,   361.445496,           0.
     20,   41.3829422,   362.617065,           0.
** ... 963 like lines cut
*Element, type=S3
 1, 836, 124, 146
 2, 223, 171, 201
 3, 878, 845, 874
 4, 178, 121, 160
 5, 193, 188, 158
 6, 200, 142, 182
 7, 147, 883, 864
 8, 191, 196, 157
 9, 195, 194, 149
10, 907, 281, 248
11, 916, 304, 313
12, 364, 347, 303
13, 485, 477, 433
14, 655, 623, 639
15, 570, 489, 530
16, 353, 535, 434
17, 539, 488, 442
18, 578, 539, 521
19, 664, 633, 570
20, 941, 687, 662
** ... 20 like lines cut
*Element, type=S4R
 41, 217, 152, 188, 422
 42, 152, 118, 158, 188
 43, 133, 158,   5,   4
 44, 833,   3, 119, 835
 45, 860, 835, 179, 230
 46, 255, 196, 191, 854
 47, 214, 854, 191, 153
 48, 875, 839, 155, 872
 49, 166,  16, 117, 837
 50, 845, 136, 161, 874
 51, 115,  24, 116, 142
 52, 117,  16,  15, 836
 53, 249, 374, 246, 876
 54, 268, 288, 260, 245
 55, 169, 858, 204, 225
 56,   8, 829, 141,   1
 57, 124,  14, 125, 840
 58, 125, 126, 154, 192
 59, 832, 118, 152, 186
 60, 834,   2,   1, 120
** ... 890 like lines cut
*Nset, nset=_PickedSet2, internal, generate
   1,  983,    1
*Elset, elset=_PickedSet2, internal, generate
   1,  950,    1
** Section: tole
*Shell Section, elset=_PickedSet2, material=acier
1., 5
*End Part
**  
**
** ASSEMBLY
**
*Assembly, name=Assembly
**  
*Instance, name=plaque-1, part=plaque
*End Instance
**  
*Node
      1,   41.3829422,   358.617065,           0.
*Node
      2,   41.3829422,   41.3829422,           0.
*Node
      3,   358.617065,   41.3829422,           0.
*Node
      4,   358.617065,   358.617065,           0.
*Nset, nset=_PickedSet9, internal
 1,
*Nset, nset=_PickedSet11, internal
 2,
*Nset, nset=_PickedSet13, internal
 3,
*Nset, nset=_PickedSet15, internal
 4,
*Nset, nset=_PickedSet16, internal, generate
 1,  4,  1
*Elset, elset=__PickedSurf8_E2, internal, instance=plaque-1
  68, 133, 145
*Elset, elset=__PickedSurf8_E1, internal, instance=plaque-1
  72, 137, 138, 144, 169
*Surface, type=ELEMENT, name=_PickedSurf8, internal
__PickedSurf8_E2, E2
__PickedSurf8_E1, E1
*Elset, elset=__PickedSurf10_E2, internal, instance=plaque-1
  52,  92, 147, 150, 152, 154
*Elset, elset=__PickedSurf10_E1, internal, instance=plaque-1
 140,
*Elset, elset=__PickedSurf10_E4, internal, instance=plaque-1
 148,
*Surface, type=ELEMENT, name=_PickedSurf10, internal
__PickedSurf10_E2, E2
__PickedSurf10_E1, E1
__PickedSurf10_E4, E4
*Elset, elset=__PickedSurf12_E3, internal, instance=plaque-1
 43,
*Elset, elset=__PickedSurf12_E4, internal, instance=plaque-1
  56, 135, 136, 143
*Elset, elset=__PickedSurf12_E2, internal, instance=plaque-1
  60, 142, 165
*Surface, type=ELEMENT, name=_PickedSurf12, internal
__PickedSurf12_E3, E3
__PickedSurf12_E4, E4
__PickedSurf12_E2, E2
*Elset, elset=__PickedSurf14_E3, internal, instance=plaque-1
 62,
*Elset, elset=__PickedSurf14_E2, internal, instance=plaque-1
  77,  78, 157, 161
*Elset, elset=__PickedSurf14_E4, internal, instance=plaque-1
  95, 158
*Elset, elset=__PickedSurf14_E1, internal, instance=plaque-1
 134,
*Surface, type=ELEMENT, name=_PickedSurf14, internal
__PickedSurf14_E3, E3
__PickedSurf14_E2, E2
__PickedSurf14_E4, E4
__PickedSurf14_E1, E1
** Constraint: Constraint-1
*Coupling, constraint name=Constraint-1, ref node=_PickedSet9, surface=_PickedSurf8
*Kinematic
** Constraint: Constraint-2
*Coupling, constraint name=Constraint-2, ref node=_PickedSet11, surface=_PickedSurf10
*Kinematic
** Constraint: Constraint-3
*Coupling, constraint name=Constraint-3, ref node=_PickedSet13, surface=_PickedSurf12
*Kinematic
** Constraint: Constraint-4
*Coupling, constraint name=Constraint-4, ref node=_PickedSet15, surface=_PickedSurf14
*Kinematic
*End Assembly
** 
** MATERIALS
** 
*Material, name=acier
*Density
 7.86e-09,
*Elastic
210000., 0.26
** ----------------------------------------------------------------
** 
** STEP: analyse_modale
** 
*Step, name=analyse_modale, nlgeom=NO, perturbation
*Frequency, eigensolver=Lanczos, sim, acoustic coupling=on, normalization=mass
, , 500., , , 
** 
** BOUNDARY CONDITIONS
** 
** Name: blocage Type: Symmetry/Antisymmetry/Encastre
*Boundary
_PickedSet16, ENCASTRE
** 
** OUTPUT REQUESTS
** 
*Restart, write, frequency=0
** 
** FIELD OUTPUT: F-Output-1
** 
*Output, field
*Node Output, variable=PRESELECT
** 
** HISTORY OUTPUT: H-Output-1
** 
*Output, history
*Energy Output, variable=ALL
*End Step
