*Heading
** Job name: vibration Model name: Model-1
** Generated by: Abaqus/CAE 2025
*Preprint, echo=NO, model=NO, history=NO, contact=NO
**
** PARTS
**
*Part, name=plaque
*Node
      1,   391.332794,   8.66721439,           0.
      2,   390.161224,   5.83878708,           0.
      3,   394.161224,   1.83878732,           0.
      4,   396.989655,   3.01036024,           0.
      5,   398.161224,   5.83878708,           0.
      6,   396.989655,   8.66721439,           0.
      7,   394.161224,   9.83878708,           0.
      8,   1.83878732,   5.83878708,           0.
      9,   3.01036024,   3.01036024,           0.
     10,   5.83878708,   1.83878732,           0.
     11,   8.66721439,   3.01036024,           0.
     12,   9.83878708,   5.83878708,           0.
     13,   8.66721439,   8.66721439,           0.
     14,   5.83878708,   9.83878708,           0.
     15,   8.66721439,   391.332794,           0.
     16,   9.83878708,   394.161224,           0.
     17,   5.83878708,   398.161224,           0.
     18,   3.01036024,   396.989655,           0.
     19,   1.83878732,   394.161224,           0.
     20,   3.01036024,   391.332794,           0.
** ... 596 like lines cut
*Element, type=S3
 1, 579, 552,   6
 2, 551,   5,   4
 3,   4,   3,  29
 4,  30,   8, 556
 5,  94, 556, 566
 6, 560, 112, 115
 7, 121,  14,  13
 8, 552, 579,  74
 9, 561, 567, 563
10, 557, 558,  35
11,  32,  17, 558
12, 559, 112, 560
13,  31,  24,  23
14,  31,  22, 563
15,  29, 550,  37
16,  27, 119, 122
17,  35, 558,  17
18, 111, 565, 112
19, 139, 569, 125
20, 122, 119, 127
** ... 54 like lines cut
*Element, type=S4R
 75, 554, 555, 583, 584
 76, 574,  10,   9,  30
 77, 115, 573, 128,  21
 78, 136, 144, 124, 133
 79, 191, 190, 232, 209
 80, 145, 135, 142, 578
 81, 131,   7, 114, 572
 82, 118, 585, 133, 124
 83, 117, 571,  37, 550
 84,   1, 123, 117,   2
 85, 168, 167, 210, 212
 86, 143, 146, 140, 137
 87, 580, 132, 127, 119
 88, 120, 569,  75, 557
 89,  15, 116, 120,  16
 90, 147, 139, 141, 577
 91,  26, 562, 119,  27
 92,  25, 576, 562,  26
 93,  28,  27, 122, 113
 94, 123, 126, 571, 117
** ... 506 like lines cut
*Nset, nset=_PickedSet2, internal, generate
   1,  616,    1
*Elset, elset=_PickedSet2, internal, generate
   1,  600,    1
** Section: tole
*Shell Section, elset=_PickedSet2, material=acier
1., 5
*End Part
**  
**
** ASSEMBLY
**
*Assembly, name=Assembly
**  
*Instance, name=plaque-1, part=plaque
*End Instance
**  
*Node
      1,   5.83878708,   394.161224,           0.
*Node
      2,   5.83878708,   5.83878708,           0.
*Node
      3,   394.161224,   5.83878708,           0.
*Node
      4,   394.161224,   394.161224,           0.
*Nset, nset=_PickedSet9, internal
 1,
*Nset, nset=_PickedSet11, internal
 2,
*Nset, nset=_PickedSet13, internal
 3,
*Nset, nset=_PickedSet15, internal
 4,
*Nset, nset=_PickedSet16, internal, generate
 1,  4,  1
*Elset, elset=__PickedSurf8_E3, internal, instance=plaque-1
  17, 165
*Elset, elset=__PickedSurf8_E2, internal, instance=plaque-1
  37,  38,  39, 160
*Elset, elset=__PickedSurf8_E4, internal, instance=plaque-1
 89,
*Elset, elset=__PickedSurf8_E1, internal, instance=plaque-1
 159,
*Surface, type=ELEMENT, name=_PickedSurf8, internal
__PickedSurf8_E3, E3
__PickedSurf8_E2, E2
__PickedSurf8_E4, E4
__PickedSurf8_E1, E1
*Elset, elset=__PickedSurf10_E2, internal, instance=plaque-1
   7,  34,  59,  76, 164, 588
*Elset, elset=__PickedSurf10_E3, internal, instance=plaque-1
 23, 33
*Surface, type=ELEMENT, name=_PickedSurf10, internal
__PickedSurf10_E2, E2
__PickedSurf10_E3, E3
*Elset, elset=__PickedSurf12_E2, internal, instance=plaque-1
   2,  28, 167
*Elset, elset=__PickedSurf12_E1, internal, instance=plaque-1
   3, 158
*Elset, elset=__PickedSurf12_E3, internal, instance=plaque-1
  30, 162
*Elset, elset=__PickedSurf12_E4, internal, instance=plaque-1
 84,
*Surface, type=ELEMENT, name=_PickedSurf12, internal
__PickedSurf12_E2, E2
__PickedSurf12_E1, E1
__PickedSurf12_E4, E4
__PickedSurf12_E3, E3
*Elset, elset=__PickedSurf14_E2, internal, instance=plaque-1
  13,  42, 109
*Elset, elset=__PickedSurf14_E1, internal, instance=plaque-1
 44, 93
*Elset, elset=__PickedSurf14_E4, internal, instance=plaque-1
 91, 92
*Elset, elset=__PickedSurf14_E3, internal, instance=plaque-1
 586,
*Surface, type=ELEMENT, name=_PickedSurf14, internal
__PickedSurf14_E2, E2
__PickedSurf14_E1, E1
__PickedSurf14_E4, E4
__PickedSurf14_E3, E3
** Constraint: Constraint-1
*Coupling, constraint name=Constraint-1, ref node=_PickedSet9, surface=_PickedSurf8
*Kinematic
** Constraint: Constraint-2
*Coupling, constraint name=Constraint-2, ref node=_PickedSet11, surface=_PickedSurf10
*Kinematic
** Constraint: Constraint-3
*Coupling, constraint name=Constraint-3, ref node=_PickedSet13, surface=_PickedSurf12
*Kinematic
** Constraint: Constraint-4
*Coupling, constraint name=Constraint-4, ref node=_PickedSet15, surface=_PickedSurf14
*Kinematic
*End Assembly
** 
** MATERIALS
** 
*Material, name=acier
*Density
 7.86e-09,
*Elastic
210000., 0.26
** ----------------------------------------------------------------
** 
** STEP: analyse_modale
** 
*Step, name=analyse_modale, nlgeom=NO, perturbation
*Frequency, eigensolver=Lanczos, sim, acoustic coupling=on, normalization=mass
, , 500., , , 
** 
** BOUNDARY CONDITIONS
** 
** Name: blocage Type: Symmetry/Antisymmetry/Encastre
*Boundary
_PickedSet16, ENCASTRE
** 
** OUTPUT REQUESTS
** 
*Restart, write, frequency=0
** 
** FIELD OUTPUT: F-Output-1
** 
*Output, field
*Node Output, variable=PRESELECT
** 
** HISTORY OUTPUT: H-Output-1
** 
*Output, history
*Energy Output, variable=ALL
*End Step
