*Heading
** Job name: vibration Model name: Model-1
** Generated by: Abaqus/CAE 2025
*Preprint, echo=NO, model=NO, history=NO, contact=NO
**
** PARTS
**
*Part, name=plaque
*Node
      1,   364.466461,   35.5335312,           0.
      2,   363.294891,   32.7051048,           0.
      3,   364.466461,   29.8766785,           0.
      4,   367.294891,   28.7051048,           0.
      5,   370.123322,   29.8766785,           0.
      6,   371.294891,   32.7051048,           0.
      7,   370.123322,   35.5335312,           0.
      8,   367.294891,   36.7051048,           0.
      9,   29.8766785,   35.5335312,           0.
     10,   28.7051048,   32.7051048,           0.
     11,   29.8766785,   29.8766785,           0.
     12,   32.7051048,   28.7051048,           0.
     13,   35.5335312,   29.8766785,           0.
     14,   36.7051048,   32.7051048,           0.
     15,   35.5335312,   35.5335312,           0.
     16,   32.7051048,   36.7051048,           0.
     17,   35.5335312,   364.466461,           0.
     18,   36.7051048,   367.294891,           0.
     19,   35.5335312,   370.123322,           0.
     20,   32.7051048,   371.294891,           0.
** ... 768 like lines cut
*Element, type=S3
 1, 152,   5,   4
 2, 119, 146,  13
 3, 203, 155, 174
 4, 698, 162, 126
 5, 124,  23,  22
 6,  22, 138, 124
 7, 183, 708, 152
 8, 186, 153, 179
 9, 156, 115, 142
10,  56, 202, 176
11, 175, 703, 156
12, 176,  57,  56
13, 445, 392, 423
14, 550, 511, 512
15, 686, 788, 673
16, 594, 562, 560
17, 617, 588, 586
18, 665, 637, 656
19, 650, 622, 612
20, 691, 685, 681
** ... 10 like lines cut
*Element, type=S4R
 31, 200, 175, 167, 708
 32, 694, 142,   6,   5
 33,   3, 123, 141,   4
 34, 180, 148, 696, 145
 35, 145, 696,  11, 695
 36, 119, 696, 148, 711
 37, 114,   9,  16, 160
 38, 112, 111, 177, 184
 39,  24,  23, 128, 157
 40, 154,  15,  14, 118
 41, 311,  39, 201, 242
 42, 118,  14,  13, 146
 43, 693, 130,   7, 115
 44, 270, 334, 327, 255
 45, 705, 308,  59,  58
 46,  28, 137, 699,  29
 47, 117,  19, 125, 151
 48, 709, 143, 710, 138
 49, 143,  20,  19, 117
 50, 138,  22,  21, 709
** ... 700 like lines cut
*Nset, nset=_PickedSet2, internal, generate
   1,  788,    1
*Elset, elset=_PickedSet2, internal, generate
   1,  750,    1
** Section: tole
*Shell Section, elset=_PickedSet2, material=acier
1., 5
*End Part
**  
**
** ASSEMBLY
**
*Assembly, name=Assembly
**  
*Instance, name=plaque-1, part=plaque
*End Instance
**  
*Node
      1,   32.7051048,   367.294891,           0.
*Node
      2,   32.7051048,   32.7051048,           0.
*Node
      3,   367.294891,   32.7051048,           0.
*Node
      4,   367.294891,   367.294891,           0.
*Nset, nset=_PickedSet9, internal
 1,
*Nset, nset=_PickedSet11, internal
 2,
*Nset, nset=_PickedSet13, internal
 3,
*Nset, nset=_PickedSet15, internal
 4,
*Nset, nset=_PickedSet16, internal, generate
 1,  4,  1
*Elset, elset=__PickedSurf8_E2, internal, instance=plaque-1
   5,  49,  50, 120
*Elset, elset=__PickedSurf8_E1, internal, instance=plaque-1
 39, 51
*Elset, elset=__PickedSurf8_E4, internal, instance=plaque-1
  85, 111
*Surface, type=ELEMENT, name=_PickedSurf8, internal
__PickedSurf8_E2, E2
__PickedSurf8_E1, E1
__PickedSurf8_E4, E4
*Elset, elset=__PickedSurf10_E2, internal, instance=plaque-1
  23,  37,  40,  42, 100, 124
*Elset, elset=__PickedSurf10_E4, internal, instance=plaque-1
 102, 725
*Surface, type=ELEMENT, name=_PickedSurf10, internal
__PickedSurf10_E2, E2
__PickedSurf10_E4, E4
*Elset, elset=__PickedSurf12_E2, internal, instance=plaque-1
   1, 129
*Elset, elset=__PickedSurf12_E3, internal, instance=plaque-1
  32,  60, 138
*Elset, elset=__PickedSurf12_E4, internal, instance=plaque-1
 33, 83
*Elset, elset=__PickedSurf12_E1, internal, instance=plaque-1
 115,
*Surface, type=ELEMENT, name=_PickedSurf12, internal
__PickedSurf12_E2, E2
__PickedSurf12_E3, E3
__PickedSurf12_E4, E4
__PickedSurf12_E1, E1
*Elset, elset=__PickedSurf14_E4, internal, instance=plaque-1
 46, 95
*Elset, elset=__PickedSurf14_E3, internal, instance=plaque-1
  53,  54,  57, 127
*Elset, elset=__PickedSurf14_E1, internal, instance=plaque-1
 55,
*Elset, elset=__PickedSurf14_E2, internal, instance=plaque-1
 56,
*Surface, type=ELEMENT, name=_PickedSurf14, internal
__PickedSurf14_E4, E4
__PickedSurf14_E3, E3
__PickedSurf14_E2, E2
__PickedSurf14_E1, E1
** Constraint: Constraint-1
*Coupling, constraint name=Constraint-1, ref node=_PickedSet9, surface=_PickedSurf8
*Kinematic
** Constraint: Constraint-2
*Coupling, constraint name=Constraint-2, ref node=_PickedSet11, surface=_PickedSurf10
*Kinematic
** Constraint: Constraint-3
*Coupling, constraint name=Constraint-3, ref node=_PickedSet13, surface=_PickedSurf12
*Kinematic
** Constraint: Constraint-4
*Coupling, constraint name=Constraint-4, ref node=_PickedSet15, surface=_PickedSurf14
*Kinematic
*End Assembly
** 
** MATERIALS
** 
*Material, name=acier
*Density
 7.86e-09,
*Elastic
210000., 0.26
** ----------------------------------------------------------------
** 
** STEP: analyse_modale
** 
*Step, name=analyse_modale, nlgeom=NO, perturbation
*Frequency, eigensolver=Lanczos, sim, acoustic coupling=on, normalization=mass
, , 500., , , 
** 
** BOUNDARY CONDITIONS
** 
** Name: blocage Type: Symmetry/Antisymmetry/Encastre
*Boundary
_PickedSet16, ENCASTRE
** 
** OUTPUT REQUESTS
** 
*Restart, write, frequency=0
** 
** FIELD OUTPUT: F-Output-1
** 
*Output, field
*Node Output, variable=PRESELECT
** 
** HISTORY OUTPUT: H-Output-1
** 
*Output, history
*Energy Output, variable=ALL
*End Step
