*Heading
** Job name: vibration Model name: Model-1
** Generated by: Abaqus/CAE 2025
*Preprint, echo=NO, model=NO, history=NO, contact=NO
**
** PARTS
**
*Part, name=plaque
*Node
      1,   347.321747,    52.678257,           0.
      2,   346.150177,   49.8498306,           0.
      3,   347.321747,   47.0214043,           0.
      4,   350.150177,   45.8498306,           0.
      5,   352.978607,   47.0214043,           0.
      6,   354.150177,   49.8498306,           0.
      7,   352.978607,    52.678257,           0.
      8,   350.150177,   53.8498306,           0.
      9,   47.0214043,    52.678257,           0.
     10,   45.8498306,   49.8498306,           0.
     11,   47.0214043,   47.0214043,           0.
     12,   49.8498306,   45.8498306,           0.
     13,    52.678257,   47.0214043,           0.
     14,   53.8498306,   49.8498306,           0.
     15,    52.678257,    52.678257,           0.
     16,   49.8498306,   53.8498306,           0.
     17,    52.678257,   347.321747,           0.
     18,   53.8498306,   350.150177,           0.
     19,    52.678257,   352.978607,           0.
     20,   49.8498306,   354.150177,           0.
** ... 1281 like lines cut
*Element, type=S3
 1,  279, 1162,  257
 2, 1169,  164,  198
 3,  247,  172,  201
 4,  136,  204,  167
 5,  190,  245, 1158
 6,  126,   10,    9
 7,  162,  133,  154
 8,  135,    4,    3
 9,  215, 1161,  240
10,  233,  144,  188
11, 1165,  216,  241
12, 1181,  305,  210
13,  216, 1093,  241
14,  314, 1189,  295
15,  239,  263,  214
16, 1097,  270, 1044
17,  310,  246,  258
18,  294,  273,  252
19, 1192,  307,  285
20,  319,  365,  341
** ... 46 like lines cut
*Element, type=S4R
  67,  188,  150, 1166,  218
  68, 1133,    5,    4, 1134
  69,  135,    3,  123,  164
  70,  149,  190, 1131,  120
  71,  124,   11,  125,  160
  72,  117, 1135,    9,   16
  73, 1183,  126,  194, 1167
  74,  136,  167,   23,   22
  75,   15, 1138,  139,   16
  76,  157,  238,  175,  127
  77,   23,  167,  115,   24
  78,  141,    8,  114,  147
  79,   13,  128, 1139,   14
  80,  257,  284, 1211,  303
  81,  157,  127, 1139,  186
  82, 1139,  128, 1171,  186
  83,   12, 1137,  129,   13
  84,  119,    6,  118,  150
  85,    2,    1,  120, 1131
  86,  261,  282,  264,  213
** ... 1195 like lines cut
*Nset, nset=_PickedSet2, internal, generate
    1,  1301,     1
*Elset, elset=_PickedSet2, internal, generate
    1,  1281,     1
** Section: tole
*Shell Section, elset=_PickedSet2, material=acier
1., 5
*End Part
**  
**
** ASSEMBLY
**
*Assembly, name=Assembly
**  
*Instance, name=plaque-1, part=plaque
*End Instance
**  
*Node
      1,   49.8498306,   350.150177,           0.
*Node
      2,   49.8498306,   49.8498306,           0.
*Node
      3,   350.150177,   49.8498306,           0.
*Node
      4,   350.150177,   350.150177,           0.
*Nset, nset=_PickedSet9, internal
 1,
*Nset, nset=_PickedSet11, internal
 2,
*Nset, nset=_PickedSet13, internal
 3,
*Nset, nset=_PickedSet15, internal
 4,
*Nset, nset=_PickedSet16, internal, generate
 1,  4,  1
*Elset, elset=__PickedSurf8_E3, internal, instance=plaque-1
  74,  91,  94, 167
*Elset, elset=__PickedSurf8_E4, internal, instance=plaque-1
  77,  93, 135, 139
*Surface, type=ELEMENT, name=_PickedSurf8, internal
__PickedSurf8_E3, E3
__PickedSurf8_E4, E4
*Elset, elset=__PickedSurf10_E2, internal, instance=plaque-1
   6, 169, 173
*Elset, elset=__PickedSurf10_E3, internal, instance=plaque-1
 72,
*Elset, elset=__PickedSurf10_E4, internal, instance=plaque-1
  75,  79,  83, 168
*Surface, type=ELEMENT, name=_PickedSurf10, internal
__PickedSurf10_E2, E2
__PickedSurf10_E3, E3
__PickedSurf10_E4, E4
*Elset, elset=__PickedSurf12_E2, internal, instance=plaque-1
   8,  68, 160
*Elset, elset=__PickedSurf12_E1, internal, instance=plaque-1
  85, 164, 166
*Elset, elset=__PickedSurf12_E4, internal, instance=plaque-1
 104, 108
*Surface, type=ELEMENT, name=_PickedSurf12, internal
__PickedSurf12_E2, E2
__PickedSurf12_E1, E1
__PickedSurf12_E4, E4
*Elset, elset=__PickedSurf14_E2, internal, instance=plaque-1
  88, 177, 179, 182
*Elset, elset=__PickedSurf14_E3, internal, instance=plaque-1
 101,
*Elset, elset=__PickedSurf14_E4, internal, instance=plaque-1
 103, 176
*Elset, elset=__PickedSurf14_E1, internal, instance=plaque-1
 181,
*Surface, type=ELEMENT, name=_PickedSurf14, internal
__PickedSurf14_E2, E2
__PickedSurf14_E3, E3
__PickedSurf14_E4, E4
__PickedSurf14_E1, E1
** Constraint: Constraint-1
*Coupling, constraint name=Constraint-1, ref node=_PickedSet9, surface=_PickedSurf8
*Kinematic
** Constraint: Constraint-2
*Coupling, constraint name=Constraint-2, ref node=_PickedSet11, surface=_PickedSurf10
*Kinematic
** Constraint: Constraint-3
*Coupling, constraint name=Constraint-3, ref node=_PickedSet13, surface=_PickedSurf12
*Kinematic
** Constraint: Constraint-4
*Coupling, constraint name=Constraint-4, ref node=_PickedSet15, surface=_PickedSurf14
*Kinematic
*End Assembly
** 
** MATERIALS
** 
*Material, name=acier
*Density
 7.86e-09,
*Elastic
210000., 0.26
** ----------------------------------------------------------------
** 
** STEP: analyse_modale
** 
*Step, name=analyse_modale, nlgeom=NO, perturbation
*Frequency, eigensolver=Lanczos, sim, acoustic coupling=on, normalization=mass
, , 500., , , 
** 
** BOUNDARY CONDITIONS
** 
** Name: blocage Type: Symmetry/Antisymmetry/Encastre
*Boundary
_PickedSet16, ENCASTRE
** 
** OUTPUT REQUESTS
** 
*Restart, write, frequency=0
** 
** FIELD OUTPUT: F-Output-1
** 
*Output, field
*Node Output, variable=PRESELECT
** 
** HISTORY OUTPUT: H-Output-1
** 
*Output, history
*Energy Output, variable=ALL
*End Step
