*Heading
** Job name: vibration Model name: Model-1
** Generated by: Abaqus/CAE 2025
*Preprint, echo=NO, model=NO, history=NO, contact=NO
**
** PARTS
**
*Part, name=plaque
*Node
      1,   380.829529,   19.1704674,           0.
      2,   379.657959,   16.3420391,           0.
      3,   380.829529,   13.5136127,           0.
      4,   383.657959,   12.3420401,           0.
      5,   386.486389,   13.5136127,           0.
      6,   387.657959,   16.3420391,           0.
      7,   386.486389,   19.1704674,           0.
      8,   383.657959,   20.3420391,           0.
      9,   13.5136127,   19.1704674,           0.
     10,   12.3420401,   16.3420391,           0.
     11,   13.5136127,   13.5136127,           0.
     12,   16.3420391,   12.3420401,           0.
     13,   19.1704674,   13.5136127,           0.
     14,   20.3420391,   16.3420391,           0.
     15,   19.1704674,   19.1704674,           0.
     16,   16.3420391,   20.3420391,           0.
     17,   19.1704674,   380.829529,           0.
     18,   20.3420391,   383.657959,           0.
     19,   19.1704674,   386.486389,           0.
     20,   16.3420391,   387.657959,           0.
** ... 682 like lines cut
*Element, type=S3
 1, 651,  33, 625
 2, 158, 628, 151
 3,   3, 151, 139
 4, 147,   9,  16
 5, 210, 131, 112
 6, 117, 633, 133
 7, 633,  11, 116
 8, 118, 141,  14
 9, 138,  26,  25
10, 131, 135, 635
11,  74, 625,  33
12, 654,  37,  33
13, 644,  35, 647
14, 112, 131,  36
15, 132,  34, 133
16, 150, 617, 125
17, 214, 142,  54
18, 149,  95,  94
19, 611, 155, 153
20, 277,  30, 621
** ... 32 like lines cut
*Element, type=S4R
 53,   6,   5, 114, 612
 54, 139, 613,   4,   3
 55,  12,  11, 633, 117
 56,  13,  12, 117, 615
 57,  10, 629, 116,  11
 58, 149,  94, 629, 147
 59, 212, 217, 229, 286
 60, 147,  16, 143, 163
 61, 305, 320, 241, 242
 62, 342, 289, 208, 228
 63, 118,  14,  13, 615
 64, 625,  74, 154, 612
 65, 231, 176, 175, 294
 66, 234, 188, 187, 263
 67, 192, 281, 218,  92
 68, 642, 643, 119, 130
 69, 113, 617, 646, 129
 70,  20, 617, 113,  21
 71, 113, 135, 124,  21
 72,  22,  21, 124, 616
** ... 603 like lines cut
*Nset, nset=_PickedSet2, internal, generate
   1,  702,    1
*Elset, elset=_PickedSet2, internal, generate
   1,  675,    1
** Section: tole
*Shell Section, elset=_PickedSet2, material=acier
1., 5
*End Part
**  
**
** ASSEMBLY
**
*Assembly, name=Assembly
**  
*Instance, name=plaque-1, part=plaque
*End Instance
**  
*Node
      1,   16.3420391,   383.657959,           0.
*Node
      2,   16.3420391,   16.3420391,           0.
*Node
      3,   383.657959,   16.3420391,           0.
*Node
      4,   383.657959,   383.657959,           0.
*Nset, nset=_PickedSet9, internal
 1,
*Nset, nset=_PickedSet11, internal
 2,
*Nset, nset=_PickedSet13, internal
 3,
*Nset, nset=_PickedSet15, internal
 4,
*Nset, nset=_PickedSet16, internal, generate
 1,  4,  1
*Elset, elset=__PickedSurf8_E4, internal, instance=plaque-1
  70, 145
*Elset, elset=__PickedSurf8_E1, internal, instance=plaque-1
 72, 74
*Elset, elset=__PickedSurf8_E2, internal, instance=plaque-1
  73, 146, 159
*Elset, elset=__PickedSurf8_E3, internal, instance=plaque-1
 144,
*Surface, type=ELEMENT, name=_PickedSurf8, internal
__PickedSurf8_E4, E4
__PickedSurf8_E1, E1
__PickedSurf8_E2, E2
__PickedSurf8_E3, E3
*Elset, elset=__PickedSurf10_E2, internal, instance=plaque-1
   4,  63, 172
*Elset, elset=__PickedSurf10_E1, internal, instance=plaque-1
  55,  56, 142
*Elset, elset=__PickedSurf10_E4, internal, instance=plaque-1
 57, 94
*Surface, type=ELEMENT, name=_PickedSurf10, internal
__PickedSurf10_E2, E2
__PickedSurf10_E1, E1
__PickedSurf10_E4, E4
*Elset, elset=__PickedSurf12_E1, internal, instance=plaque-1
 53,
*Elset, elset=__PickedSurf12_E3, internal, instance=plaque-1
  54, 161
*Elset, elset=__PickedSurf12_E2, internal, instance=plaque-1
 110, 112, 147, 156, 157
*Surface, type=ELEMENT, name=_PickedSurf12, internal
__PickedSurf12_E1, E1
__PickedSurf12_E3, E3
__PickedSurf12_E2, E2
*Elset, elset=__PickedSurf14_E2, internal, instance=plaque-1
   9, 143, 153, 155
*Elset, elset=__PickedSurf14_E1, internal, instance=plaque-1
 76, 77, 80
*Elset, elset=__PickedSurf14_E4, internal, instance=plaque-1
 79,
*Surface, type=ELEMENT, name=_PickedSurf14, internal
__PickedSurf14_E2, E2
__PickedSurf14_E1, E1
__PickedSurf14_E4, E4
** Constraint: Constraint-1
*Coupling, constraint name=Constraint-1, ref node=_PickedSet9, surface=_PickedSurf8
*Kinematic
** Constraint: Constraint-2
*Coupling, constraint name=Constraint-2, ref node=_PickedSet11, surface=_PickedSurf10
*Kinematic
** Constraint: Constraint-3
*Coupling, constraint name=Constraint-3, ref node=_PickedSet13, surface=_PickedSurf12
*Kinematic
** Constraint: Constraint-4
*Coupling, constraint name=Constraint-4, ref node=_PickedSet15, surface=_PickedSurf14
*Kinematic
*End Assembly
** 
** MATERIALS
** 
*Material, name=acier
*Density
 7.86e-09,
*Elastic
210000., 0.26
** ----------------------------------------------------------------
** 
** STEP: analyse_modale
** 
*Step, name=analyse_modale, nlgeom=NO, perturbation
*Frequency, eigensolver=Lanczos, sim, acoustic coupling=on, normalization=mass
, , 500., , , 
** 
** BOUNDARY CONDITIONS
** 
** Name: blocage Type: Symmetry/Antisymmetry/Encastre
*Boundary
_PickedSet16, ENCASTRE
** 
** OUTPUT REQUESTS
** 
*Restart, write, frequency=0
** 
** FIELD OUTPUT: F-Output-1
** 
*Output, field
*Node Output, variable=PRESELECT
** 
** HISTORY OUTPUT: H-Output-1
** 
*Output, history
*Energy Output, variable=ALL
*End Step
