*Heading
** Job name: vibration Model name: Model-1
** Generated by: Abaqus/CAE 2025
*Preprint, echo=NO, model=NO, history=NO, contact=NO
**
** PARTS
**
*Part, name=plaque
*Node
      1,   362.498505,   37.5015068,           0.
      2,   361.326935,   34.6730766,           0.
      3,   362.498505,   31.8446503,           0.
      4,   365.326935,   30.6730785,           0.
      5,   368.155334,   31.8446503,           0.
      6,   369.326935,   34.6730766,           0.
      7,   368.155334,   37.5015068,           0.
      8,   365.326935,   38.6730766,           0.
      9,   31.8446503,   37.5015068,           0.
     10,   30.6730785,   34.6730766,           0.
     11,   31.8446503,   31.8446503,           0.
     12,   34.6730766,   30.6730785,           0.
     13,   37.5015068,   31.8446503,           0.
     14,   38.6730766,   34.6730766,           0.
     15,   37.5015068,   37.5015068,           0.
     16,   34.6730766,   38.6730766,           0.
     17,   37.5015068,   362.498505,           0.
     18,   38.6730766,   365.326935,           0.
     19,   37.5015068,   368.155334,           0.
     20,   34.6730766,   369.326935,           0.
** ... 743 like lines cut
*Element, type=S3
 1, 132, 160,   5
 2, 179, 197, 154
 3, 668,  30, 127
 4, 126, 169, 125
 5, 656, 172, 138
 6, 157, 128, 150
 7, 160,   6,   5
 8, 679, 672, 161
 9, 137, 113,  32
10, 688, 217, 172
11, 297, 175, 695
12, 151, 664, 134
13,  54, 186,  55
14, 206, 179, 156
15, 179, 206, 197
16, 199,  73,  72
17, 207, 674, 162
18, 140, 202, 142
19, 674, 207, 208
20, 680,  38,  37
** ... 20 like lines cut
*Element, type=S4R
 41, 180, 181, 690, 160
 42, 181, 180, 681, 198
 43,   4, 657, 132,   5
 44, 118,   3,   2, 147
 45, 124, 156,  11,  10
 46, 156, 179, 154, 123
 47, 658, 124,  10,   9
 48,   9,  16, 117, 658
 49,  22, 134, 664,  23
 50, 659,  15, 125, 163
 51, 163, 125, 169, 191
 52, 115, 664, 151, 196
 53, 337, 218, 220, 281
 54, 386, 305, 264, 330
 55, 126,  14,  13, 155
 56, 138,   8, 114, 656
 57,  12, 123, 660,  13
 58, 120, 147,   2,   1
 59, 371, 333, 332, 370
 60, 255, 259,  61,  60
** ... 670 like lines cut
*Nset, nset=_PickedSet2, internal, generate
   1,  763,    1
*Elset, elset=_PickedSet2, internal, generate
   1,  730,    1
** Section: tole
*Shell Section, elset=_PickedSet2, material=acier
1., 5
*End Part
**  
**
** ASSEMBLY
**
*Assembly, name=Assembly
**  
*Instance, name=plaque-1, part=plaque
*End Instance
**  
*Node
      1,   34.6730766,   365.326935,           0.
*Node
      2,   34.6730766,   34.6730766,           0.
*Node
      3,   365.326935,   34.6730766,           0.
*Node
      4,   365.326935,   365.326935,           0.
*Nset, nset=_PickedSet9, internal
 1,
*Nset, nset=_PickedSet11, internal
 2,
*Nset, nset=_PickedSet13, internal
 3,
*Nset, nset=_PickedSet15, internal
 4,
*Nset, nset=_PickedSet16, internal, generate
 1,  4,  1
*Elset, elset=__PickedSurf8_E4, internal, instance=plaque-1
  49, 102, 159
*Elset, elset=__PickedSurf8_E2, internal, instance=plaque-1
  66,  68, 134, 141, 700
*Surface, type=ELEMENT, name=_PickedSurf8, internal
__PickedSurf8_E4, E4
__PickedSurf8_E2, E2
*Elset, elset=__PickedSurf10_E3, internal, instance=plaque-1
 45, 47
*Elset, elset=__PickedSurf10_E1, internal, instance=plaque-1
  48, 137
*Elset, elset=__PickedSurf10_E2, internal, instance=plaque-1
  55, 143, 146
*Elset, elset=__PickedSurf10_E4, internal, instance=plaque-1
 57,
*Surface, type=ELEMENT, name=_PickedSurf10, internal
__PickedSurf10_E3, E3
__PickedSurf10_E1, E1
__PickedSurf10_E2, E2
__PickedSurf10_E4, E4
*Elset, elset=__PickedSurf12_E2, internal, instance=plaque-1
   7,  44,  71, 133, 156
*Elset, elset=__PickedSurf12_E4, internal, instance=plaque-1
 43,
*Elset, elset=__PickedSurf12_E3, internal, instance=plaque-1
 58,
*Elset, elset=__PickedSurf12_E1, internal, instance=plaque-1
 76,
*Surface, type=ELEMENT, name=_PickedSurf12, internal
__PickedSurf12_E2, E2
__PickedSurf12_E4, E4
__PickedSurf12_E3, E3
__PickedSurf12_E1, E1
*Elset, elset=__PickedSurf14_E2, internal, instance=plaque-1
  62,  74, 155
*Elset, elset=__PickedSurf14_E4, internal, instance=plaque-1
 63,
*Elset, elset=__PickedSurf14_E3, internal, instance=plaque-1
  73,  75, 115
*Elset, elset=__PickedSurf14_E1, internal, instance=plaque-1
 154,
*Surface, type=ELEMENT, name=_PickedSurf14, internal
__PickedSurf14_E2, E2
__PickedSurf14_E4, E4
__PickedSurf14_E3, E3
__PickedSurf14_E1, E1
** Constraint: Constraint-1
*Coupling, constraint name=Constraint-1, ref node=_PickedSet9, surface=_PickedSurf8
*Kinematic
** Constraint: Constraint-2
*Coupling, constraint name=Constraint-2, ref node=_PickedSet11, surface=_PickedSurf10
*Kinematic
** Constraint: Constraint-3
*Coupling, constraint name=Constraint-3, ref node=_PickedSet13, surface=_PickedSurf12
*Kinematic
** Constraint: Constraint-4
*Coupling, constraint name=Constraint-4, ref node=_PickedSet15, surface=_PickedSurf14
*Kinematic
*End Assembly
** 
** MATERIALS
** 
*Material, name=acier
*Density
 7.86e-09,
*Elastic
210000., 0.26
** ----------------------------------------------------------------
** 
** STEP: analyse_modale
** 
*Step, name=analyse_modale, nlgeom=NO, perturbation
*Frequency, eigensolver=Lanczos, sim, acoustic coupling=on, normalization=mass
, , 500., , , 
** 
** BOUNDARY CONDITIONS
** 
** Name: blocage Type: Symmetry/Antisymmetry/Encastre
*Boundary
_PickedSet16, ENCASTRE
** 
** OUTPUT REQUESTS
** 
*Restart, write, frequency=0
** 
** FIELD OUTPUT: F-Output-1
** 
*Output, field
*Node Output, variable=PRESELECT
** 
** HISTORY OUTPUT: H-Output-1
** 
*Output, history
*Energy Output, variable=ALL
*End Step
