*Heading
** Job name: vibration Model name: Model-1
** Generated by: Abaqus/CAE 2025
*Preprint, echo=NO, model=NO, history=NO, contact=NO
**
** PARTS
**
*Part, name=plaque
*Node
      1,   382.893036,   17.1069641,           0.
      2,   381.721466,   14.2785378,           0.
      3,   382.893036,   11.4501104,           0.
      4,   385.721466,   10.2785378,           0.
      5,   388.549896,   11.4501104,           0.
      6,   389.721466,   14.2785378,           0.
      7,   388.549896,   17.1069641,           0.
      8,   385.721466,   18.2785378,           0.
      9,   11.4501104,   17.1069641,           0.
     10,   10.2785378,   14.2785378,           0.
     11,   11.4501104,   11.4501104,           0.
     12,   14.2785378,   10.2785378,           0.
     13,   17.1069641,   11.4501104,           0.
     14,   18.2785378,   14.2785378,           0.
     15,   17.1069641,   17.1069641,           0.
     16,   14.2785378,   18.2785378,           0.
     17,   17.1069641,   382.893036,           0.
     18,   18.2785378,   385.721466,           0.
     19,   17.1069641,   388.549896,           0.
     20,   14.2785378,   389.721466,           0.
** ... 613 like lines cut
*Element, type=S3
 1,  74, 136, 125
 2, 459, 412, 417
 3,  34,  55, 605
 4, 585,  29,  28
 5, 585, 145,  29
 6, 583, 590, 115
 7, 119, 126,  27
 8, 600, 140, 584
 9,  31, 131, 122
10,  74, 125,  33
11, 174, 169, 221
12, 580,   9,  16
13,  93, 139,  35
14,  18, 583,  19
15, 583, 115,  19
16, 112, 127,  36
17,  10, 146, 143
18, 125, 136, 121
19, 127, 112, 138
20, 599, 156, 132
** ... 32 like lines cut
*Element, type=S4R
 53,   6, 136, 114,   7
 54, 137,  33, 125, 121
 55,   4,   3, 579, 144
 56, 118,  11,  10, 143
 57,  22, 138, 148,  23
 58,  16,  15, 117, 128
 59, 123, 150, 128, 117
 60,  40,  39, 221, 171
 61, 114, 147,   8,   7
 62, 189, 188, 231, 233
 63, 220,  59,  58, 227
 64, 120, 141,  18,  17
 65, 127,  21, 607,  36
 66,  24,  23, 148, 113
 67, 223, 173,  78,  77
 68,  25,  32, 133, 595
 69, 121,   5,   4, 137
 70, 135, 578,   2,   1
 71, 155, 167, 280, 169
 72,  41,  40, 171, 175
** ... 534 like lines cut
*Nset, nset=_PickedSet2, internal, generate
   1,  633,    1
*Elset, elset=_PickedSet2, internal, generate
   1,  606,    1
** Section: tole
*Shell Section, elset=_PickedSet2, material=acier
1., 5
*End Part
**  
**
** ASSEMBLY
**
*Assembly, name=Assembly
**  
*Instance, name=plaque-1, part=plaque
*End Instance
**  
*Node
      1,   14.2785378,   385.721466,           0.
*Node
      2,   14.2785378,   14.2785378,           0.
*Node
      3,   385.721466,   14.2785378,           0.
*Node
      4,   385.721466,   385.721466,           0.
*Nset, nset=_PickedSet9, internal
 1,
*Nset, nset=_PickedSet11, internal
 2,
*Nset, nset=_PickedSet13, internal
 3,
*Nset, nset=_PickedSet15, internal
 4,
*Nset, nset=_PickedSet16, internal, generate
 1,  4,  1
*Elset, elset=__PickedSurf8_E3, internal, instance=plaque-1
  14,  64, 158
*Elset, elset=__PickedSurf8_E4, internal, instance=plaque-1
 57,
*Elset, elset=__PickedSurf8_E1, internal, instance=plaque-1
  66, 135, 136
*Elset, elset=__PickedSurf8_E2, internal, instance=plaque-1
 130,
*Surface, type=ELEMENT, name=_PickedSurf8, internal
__PickedSurf8_E3, E3
__PickedSurf8_E4, E4
__PickedSurf8_E2, E2
__PickedSurf8_E1, E1
*Elset, elset=__PickedSurf10_E2, internal, instance=plaque-1
  12,  56,  83, 133
*Elset, elset=__PickedSurf10_E1, internal, instance=plaque-1
 58,
*Elset, elset=__PickedSurf10_E4, internal, instance=plaque-1
 113, 137, 166
*Surface, type=ELEMENT, name=_PickedSurf10, internal
__PickedSurf10_E2, E2
__PickedSurf10_E1, E1
__PickedSurf10_E4, E4
*Elset, elset=__PickedSurf12_E4, internal, instance=plaque-1
 53, 98
*Elset, elset=__PickedSurf12_E1, internal, instance=plaque-1
  55, 144
*Elset, elset=__PickedSurf12_E3, internal, instance=plaque-1
  61,  70, 134
*Elset, elset=__PickedSurf12_E2, internal, instance=plaque-1
 69,
*Surface, type=ELEMENT, name=_PickedSurf12, internal
__PickedSurf12_E4, E4
__PickedSurf12_E1, E1
__PickedSurf12_E2, E2
__PickedSurf12_E3, E3
*Elset, elset=__PickedSurf14_E2, internal, instance=plaque-1
 4,
*Elset, elset=__PickedSurf14_E3, internal, instance=plaque-1
  39,  40, 129
*Elset, elset=__PickedSurf14_E1, internal, instance=plaque-1
  68, 141, 142
*Elset, elset=__PickedSurf14_E4, internal, instance=plaque-1
 165,
*Surface, type=ELEMENT, name=_PickedSurf14, internal
__PickedSurf14_E2, E2
__PickedSurf14_E3, E3
__PickedSurf14_E4, E4
__PickedSurf14_E1, E1
** Constraint: Constraint-1
*Coupling, constraint name=Constraint-1, ref node=_PickedSet9, surface=_PickedSurf8
*Kinematic
** Constraint: Constraint-2
*Coupling, constraint name=Constraint-2, ref node=_PickedSet11, surface=_PickedSurf10
*Kinematic
** Constraint: Constraint-3
*Coupling, constraint name=Constraint-3, ref node=_PickedSet13, surface=_PickedSurf12
*Kinematic
** Constraint: Constraint-4
*Coupling, constraint name=Constraint-4, ref node=_PickedSet15, surface=_PickedSurf14
*Kinematic
*End Assembly
** 
** MATERIALS
** 
*Material, name=acier
*Density
 7.86e-09,
*Elastic
210000., 0.26
** ----------------------------------------------------------------
** 
** STEP: analyse_modale
** 
*Step, name=analyse_modale, nlgeom=NO, perturbation
*Frequency, eigensolver=Lanczos, sim, acoustic coupling=on, normalization=mass
, , 500., , , 
** 
** BOUNDARY CONDITIONS
** 
** Name: blocage Type: Symmetry/Antisymmetry/Encastre
*Boundary
_PickedSet16, ENCASTRE
** 
** OUTPUT REQUESTS
** 
*Restart, write, frequency=0
** 
** FIELD OUTPUT: F-Output-1
** 
*Output, field
*Node Output, variable=PRESELECT
** 
** HISTORY OUTPUT: H-Output-1
** 
*Output, history
*Energy Output, variable=ALL
*End Step
