*Heading
** Job name: vibration Model name: Model-1
** Generated by: Abaqus/CAE 2025
*Preprint, echo=NO, model=NO, history=NO, contact=NO
**
** PARTS
**
*Part, name=plaque
*Node
      1,   356.789215,   43.2107735,           0.
      2,   355.617645,   40.3823471,           0.
      3,   356.789215,   37.5539207,           0.
      4,   359.617645,   36.3823471,           0.
      5,   362.446075,   37.5539207,           0.
      6,   363.617645,   40.3823471,           0.
      7,   362.446075,   43.2107735,           0.
      8,   359.617645,   44.3823471,           0.
      9,   37.5539207,   43.2107735,           0.
     10,   36.3823471,   40.3823471,           0.
     11,   37.5539207,   37.5539207,           0.
     12,   40.3823471,   36.3823471,           0.
     13,   43.2107735,   37.5539207,           0.
     14,   44.3823471,   40.3823471,           0.
     15,   43.2107735,   43.2107735,           0.
     16,   40.3823471,   44.3823471,           0.
     17,   43.2107735,   356.789215,           0.
     18,   44.3823471,   359.617645,           0.
     19,   43.2107735,   362.446075,           0.
     20,   40.3823471,   363.617645,           0.
** ... 955 like lines cut
*Element, type=S3
 1, 117,   1, 113
 2, 846, 132, 145
 3, 118, 180, 142
 4, 181, 194, 125
 5, 182, 195, 122
 6, 154, 148, 184
 7, 255, 174, 853
 8, 260, 212, 185
 9, 241, 860, 229
10, 872, 242, 203
11, 256, 317, 276
12, 429, 319, 338
13, 521, 473, 449
14, 941, 606, 929
15, 917, 929, 577
16, 915, 674, 653
17, 709, 706, 683
18, 731, 671, 712
19, 658, 691, 920
20, 730, 952, 668
** ... 10 like lines cut
*Element, type=S4R
 31, 201, 144, 174, 255
 32, 154,   5,   4, 835
 33, 128,   3, 116, 158
 34, 128, 185, 856, 835
 35, 153,  11, 120, 841
 36, 177, 187, 153, 841
 37, 839,  10,   9, 121
 38, 160,  16, 115, 838
 39, 186, 149, 208, 264
 40, 134,  23, 129, 140
 41, 115,  16,  15, 837
 42, 175, 228, 202, 159
 43, 217, 206, 240, 249
 44, 195, 182, 218, 270
 45, 193, 224, 138, 859
 46, 141, 837, 122, 195
 47,   8,   7, 135, 161
 48, 227, 245, 207, 150
 49, 122,  14, 123, 182
 50, 376, 311, 898, 434
** ... 887 like lines cut
*Nset, nset=_PickedSet2, internal, generate
   1,  975,    1
*Elset, elset=_PickedSet2, internal, generate
   1,  937,    1
** Section: tole
*Shell Section, elset=_PickedSet2, material=acier
1., 5
*End Part
**  
**
** ASSEMBLY
**
*Assembly, name=Assembly
**  
*Instance, name=plaque-1, part=plaque
*End Instance
**  
*Node
      1,   40.3823471,   359.617645,           0.
*Node
      2,   40.3823471,   40.3823471,           0.
*Node
      3,   359.617645,   40.3823471,           0.
*Node
      4,   359.617645,   359.617645,           0.
*Nset, nset=_PickedSet9, internal
 1,
*Nset, nset=_PickedSet11, internal
 2,
*Nset, nset=_PickedSet13, internal
 3,
*Nset, nset=_PickedSet15, internal
 4,
*Nset, nset=_PickedSet16, internal, generate
 1,  4,  1
*Elset, elset=__PickedSurf8_E4, internal, instance=plaque-1
 56,
*Elset, elset=__PickedSurf8_E2, internal, instance=plaque-1
 122, 134, 150, 155
*Elset, elset=__PickedSurf8_E1, internal, instance=plaque-1
 133, 151, 152
*Surface, type=ELEMENT, name=_PickedSurf8, internal
__PickedSurf8_E4, E4
__PickedSurf8_E2, E2
__PickedSurf8_E1, E1
*Elset, elset=__PickedSurf10_E2, internal, instance=plaque-1
  37,  41, 135, 136, 138, 140
*Elset, elset=__PickedSurf10_E3, internal, instance=plaque-1
 80,
*Elset, elset=__PickedSurf10_E1, internal, instance=plaque-1
 127,
*Surface, type=ELEMENT, name=_PickedSurf10, internal
__PickedSurf10_E2, E2
__PickedSurf10_E3, E3
__PickedSurf10_E1, E1
*Elset, elset=__PickedSurf12_E2, internal, instance=plaque-1
  32,  68, 130
*Elset, elset=__PickedSurf12_E1, internal, instance=plaque-1
  47, 129
*Elset, elset=__PickedSurf12_E3, internal, instance=plaque-1
 71,
*Elset, elset=__PickedSurf12_E4, internal, instance=plaque-1
 92, 95
*Surface, type=ELEMENT, name=_PickedSurf12, internal
__PickedSurf12_E2, E2
__PickedSurf12_E1, E1
__PickedSurf12_E4, E4
__PickedSurf12_E3, E3
*Elset, elset=__PickedSurf14_E3, internal, instance=plaque-1
 53, 63
*Elset, elset=__PickedSurf14_E2, internal, instance=plaque-1
  64,  66, 142, 144
*Elset, elset=__PickedSurf14_E4, internal, instance=plaque-1
 126,
*Elset, elset=__PickedSurf14_E1, internal, instance=plaque-1
 146,
*Surface, type=ELEMENT, name=_PickedSurf14, internal
__PickedSurf14_E3, E3
__PickedSurf14_E2, E2
__PickedSurf14_E4, E4
__PickedSurf14_E1, E1
** Constraint: Constraint-1
*Coupling, constraint name=Constraint-1, ref node=_PickedSet9, surface=_PickedSurf8
*Kinematic
** Constraint: Constraint-2
*Coupling, constraint name=Constraint-2, ref node=_PickedSet11, surface=_PickedSurf10
*Kinematic
** Constraint: Constraint-3
*Coupling, constraint name=Constraint-3, ref node=_PickedSet13, surface=_PickedSurf12
*Kinematic
** Constraint: Constraint-4
*Coupling, constraint name=Constraint-4, ref node=_PickedSet15, surface=_PickedSurf14
*Kinematic
*End Assembly
** 
** MATERIALS
** 
*Material, name=acier
*Density
 7.86e-09,
*Elastic
210000., 0.26
** ----------------------------------------------------------------
** 
** STEP: analyse_modale
** 
*Step, name=analyse_modale, nlgeom=NO, perturbation
*Frequency, eigensolver=Lanczos, sim, acoustic coupling=on, normalization=mass
, , 500., , , 
** 
** BOUNDARY CONDITIONS
** 
** Name: blocage Type: Symmetry/Antisymmetry/Encastre
*Boundary
_PickedSet16, ENCASTRE
** 
** OUTPUT REQUESTS
** 
*Restart, write, frequency=0
** 
** FIELD OUTPUT: F-Output-1
** 
*Output, field
*Node Output, variable=PRESELECT
** 
** HISTORY OUTPUT: H-Output-1
** 
*Output, history
*Energy Output, variable=ALL
*End Step
