*Heading
** Job name: vibration Model name: Model-1
** Generated by: Abaqus/CAE 2025
*Preprint, echo=NO, model=NO, history=NO, contact=NO
**
** PARTS
**
*Part, name=plaque
*Node
      1,     391.9104,   8.08959389,           0.
      2,   390.738831,   5.26116705,           0.
      3,     391.9104,   2.43273973,           0.
      4,   394.738831,   1.26116681,           0.
      5,   397.567261,   2.43273973,           0.
      6,   398.738831,   5.26116705,           0.
      7,   397.567261,   8.08959389,           0.
      8,   394.738831,   9.26116657,           0.
      9,   2.43273973,   8.08959389,           0.
     10,   1.26116681,   5.26116705,           0.
     11,   2.43273973,   2.43273973,           0.
     12,   5.26116705,   1.26116681,           0.
     13,   8.08959389,   2.43273973,           0.
     14,   9.26116657,   5.26116705,           0.
     15,   8.08959389,   8.08959389,           0.
     16,   5.26116705,   9.26116657,           0.
     17,   8.08959389,     391.9104,           0.
     18,   9.26116657,   394.738831,           0.
     19,   8.08959389,   397.567261,           0.
     20,   5.26116705,   398.738831,           0.
** ... 591 like lines cut
*Element, type=S3
 1, 546,  74, 545
 2, 548,  37,  33
 3, 554,  55, 553
 4,  32, 128,  25
 5, 114,   2,   1
 6,  35,  28, 561
 7,  36,  20, 559
 8,  23, 557, 556
 9, 569, 555, 556
10, 561,  28,  27
11,  26,  56,  35
12,  37, 547, 123
13, 119, 114, 113
14, 133, 562,  55
15, 559, 558,  75
16,  18, 558,  19
17, 120, 117, 118
18, 566,   1,   8
19, 129, 128, 116
20, 547,  37, 548
** ... 48 like lines cut
*Element, type=S4R
 69, 115, 549,  16,  15
 70, 565,  94, 573, 122
 71, 185, 261, 208, 186
 72,  14,  13, 553, 126
 73,   8,   7, 546, 545
 74, 547, 548,   3,   2
 75, 209, 164, 163, 216
 76, 200, 138, 207, 142
 77,  93, 124,  30,  29
 78, 558,  18, 125,  75
 79,  18,  17, 117, 125
 80, 556, 555,  24,  23
 81,  32,  31, 116, 128
 82, 119, 113, 121, 131
 83,  39,  38, 141, 144
 84,  40,  39, 144, 145
 85,  41,  40, 145, 146
 86, 146, 147,  42,  41
 87, 147, 148,  43,  42
 88, 148, 149,  44,  43
** ... 504 like lines cut
*Nset, nset=_PickedSet2, internal, generate
   1,  611,    1
*Elset, elset=_PickedSet2, internal, generate
   1,  592,    1
** Section: tole
*Shell Section, elset=_PickedSet2, material=acier
1., 5
*End Part
**  
**
** ASSEMBLY
**
*Assembly, name=Assembly
**  
*Instance, name=plaque-1, part=plaque
*End Instance
**  
*Node
      1,   5.26116705,   394.738831,           0.
*Node
      2,   5.26116705,   5.26116705,           0.
*Node
      3,   394.738831,   5.26116705,           0.
*Node
      4,   394.738831,   394.738831,           0.
*Nset, nset=_PickedSet9, internal
 1,
*Nset, nset=_PickedSet11, internal
 2,
*Nset, nset=_PickedSet13, internal
 3,
*Nset, nset=_PickedSet15, internal
 4,
*Nset, nset=_PickedSet16, internal, generate
 1,  4,  1
*Elset, elset=__PickedSurf8_E3, internal, instance=plaque-1, generate
 16,  80,  32
*Elset, elset=__PickedSurf8_E2, internal, instance=plaque-1
  45,  51, 576, 579
*Elset, elset=__PickedSurf8_E1, internal, instance=plaque-1
 79,
*Surface, type=ELEMENT, name=_PickedSurf8, internal
__PickedSurf8_E3, E3
__PickedSurf8_E2, E2
__PickedSurf8_E1, E1
*Elset, elset=__PickedSurf10_E3, internal, instance=plaque-1
  69, 160, 571
*Elset, elset=__PickedSurf10_E1, internal, instance=plaque-1
  72, 573
*Elset, elset=__PickedSurf10_E2, internal, instance=plaque-1
 145,
*Elset, elset=__PickedSurf10_E4, internal, instance=plaque-1
 570, 574
*Surface, type=ELEMENT, name=_PickedSurf10, internal
__PickedSurf10_E3, E3
__PickedSurf10_E1, E1
__PickedSurf10_E2, E2
__PickedSurf10_E4, E4
*Elset, elset=__PickedSurf12_E2, internal, instance=plaque-1
  5, 18, 38, 63
*Elset, elset=__PickedSurf12_E3, internal, instance=plaque-1
 41, 42, 74
*Elset, elset=__PickedSurf12_E1, internal, instance=plaque-1
 73,
*Surface, type=ELEMENT, name=_PickedSurf12, internal
__PickedSurf12_E2, E2
__PickedSurf12_E3, E3
__PickedSurf12_E1, E1
*Elset, elset=__PickedSurf14_E3, internal, instance=plaque-1
  4, 52, 55, 77
*Elset, elset=__PickedSurf14_E2, internal, instance=plaque-1
  10,  23, 146
*Elset, elset=__PickedSurf14_E1, internal, instance=plaque-1
 81,
*Surface, type=ELEMENT, name=_PickedSurf14, internal
__PickedSurf14_E3, E3
__PickedSurf14_E2, E2
__PickedSurf14_E1, E1
** Constraint: Constraint-1
*Coupling, constraint name=Constraint-1, ref node=_PickedSet9, surface=_PickedSurf8
*Kinematic
** Constraint: Constraint-2
*Coupling, constraint name=Constraint-2, ref node=_PickedSet11, surface=_PickedSurf10
*Kinematic
** Constraint: Constraint-3
*Coupling, constraint name=Constraint-3, ref node=_PickedSet13, surface=_PickedSurf12
*Kinematic
** Constraint: Constraint-4
*Coupling, constraint name=Constraint-4, ref node=_PickedSet15, surface=_PickedSurf14
*Kinematic
*End Assembly
** 
** MATERIALS
** 
*Material, name=acier
*Density
 7.86e-09,
*Elastic
210000., 0.26
** ----------------------------------------------------------------
** 
** STEP: analyse_modale
** 
*Step, name=analyse_modale, nlgeom=NO, perturbation
*Frequency, eigensolver=Lanczos, sim, acoustic coupling=on, normalization=mass
, , 500., , , 
** 
** BOUNDARY CONDITIONS
** 
** Name: blocage Type: Symmetry/Antisymmetry/Encastre
*Boundary
_PickedSet16, ENCASTRE
** 
** OUTPUT REQUESTS
** 
*Restart, write, frequency=0
** 
** FIELD OUTPUT: F-Output-1
** 
*Output, field
*Node Output, variable=PRESELECT
** 
** HISTORY OUTPUT: H-Output-1
** 
*Output, history
*Energy Output, variable=ALL
*End Step
