*Heading
** Job name: vibration Model name: Model-1
** Generated by: Abaqus/CAE 2025
*Preprint, echo=NO, model=NO, history=NO, contact=NO
**
** PARTS
**
*Part, name=plaque
*Node
      1,   390.205017,   9.79496956,           0.
      2,   389.033447,   6.96654224,           0.
      3,   390.205017,   4.13811541,           0.
      4,   393.033447,   2.96654248,           0.
      5,   395.861877,   4.13811541,           0.
      6,   397.033447,   6.96654224,           0.
      7,   395.861877,   9.79496956,           0.
      8,   393.033447,   10.9665422,           0.
      9,   4.13811541,   9.79496956,           0.
     10,   2.96654248,   6.96654224,           0.
     11,   4.13811541,   4.13811541,           0.
     12,   6.96654224,   2.96654248,           0.
     13,   9.79496956,   4.13811541,           0.
     14,   10.9665422,   6.96654224,           0.
     15,   9.79496956,   9.79496956,           0.
     16,   6.96654224,   10.9665422,           0.
     17,   9.79496956,   390.205017,           0.
     18,   10.9665422,   393.033447,           0.
     19,   9.79496956,   395.861877,           0.
     20,   6.96654224,   397.033447,           0.
** ... 598 like lines cut
*Element, type=S3
 1, 553,  37,  33
 2,  11,  34,  12
 3,  34,  55,  12
 4,  36, 557,  75
 5, 588,  21,  36
 6, 121, 120,  18
 7,  30, 175,  31
 8, 153, 119,  93
 9, 574,  28,  35
10, 553, 552,  37
11, 175, 114,  31
12, 585, 566, 180
13,  12,  55,  13
14, 574,  29,  28
15, 123, 554,  74
16,   9, 115, 555
17, 593, 154,  95
18, 217,  38, 170
19, 564, 224,  57
20, 584,  57,  56
** ... 56 like lines cut
*Element, type=S4R
 77, 554, 123,   8,   7
 78, 116, 569,  37, 552
 79, 573, 555, 550,  94
 80, 172, 179, 246, 309
 81, 124,  15, 117, 587
 82,  51,  50, 132, 186
 83, 187, 140, 139, 190
 84, 118, 117,  15,  14
 85, 178, 576, 123,  74
 86, 587, 563, 125, 124
 87, 363, 174, 247, 578
 88, 159, 160, 101, 100
 89, 188, 150, 149, 195
 90, 175, 308, 245, 114
 91,  29, 574, 119,  30
 92, 120, 567,  75, 556
 93, 559, 558,  23,  22
 94,  17,  24, 177, 176
 95, 189, 167, 166, 200
 96, 561, 598, 560, 566
** ... 507 like lines cut
*Nset, nset=_PickedSet2, internal, generate
   1,  618,    1
*Elset, elset=_PickedSet2, internal, generate
   1,  603,    1
** Section: tole
*Shell Section, elset=_PickedSet2, material=acier
1., 5
*End Part
**  
**
** ASSEMBLY
**
*Assembly, name=Assembly
**  
*Instance, name=plaque-1, part=plaque
*End Instance
**  
*Node
      1,   6.96654224,   393.033447,           0.
*Node
      2,   6.96654224,   6.96654224,           0.
*Node
      3,   393.033447,   6.96654224,           0.
*Node
      4,   393.033447,   393.033447,           0.
*Nset, nset=_PickedSet9, internal
 1,
*Nset, nset=_PickedSet11, internal
 2,
*Nset, nset=_PickedSet13, internal
 3,
*Nset, nset=_PickedSet15, internal
 4,
*Nset, nset=_PickedSet16, internal, generate
 1,  4,  1
*Elset, elset=__PickedSurf8_E3, internal, instance=plaque-1
 41, 43, 93
*Elset, elset=__PickedSurf8_E1, internal, instance=plaque-1
  94, 168, 171
*Elset, elset=__PickedSurf8_E2, internal, instance=plaque-1
 128, 169
*Surface, type=ELEMENT, name=_PickedSurf8, internal
__PickedSurf8_E3, E3
__PickedSurf8_E1, E1
__PickedSurf8_E2, E2
*Elset, elset=__PickedSurf10_E3, internal, instance=plaque-1
   2,  13,  38,  50,  84, 167
*Elset, elset=__PickedSurf10_E1, internal, instance=plaque-1
 144, 165
*Surface, type=ELEMENT, name=_PickedSurf10, internal
__PickedSurf10_E3, E3
__PickedSurf10_E1, E1
*Elset, elset=__PickedSurf12_E3, internal, instance=plaque-1
  35,  77, 228
*Elset, elset=__PickedSurf12_E2, internal, instance=plaque-1
  59, 162
*Elset, elset=__PickedSurf12_E1, internal, instance=plaque-1
  98, 166
*Elset, elset=__PickedSurf12_E4, internal, instance=plaque-1
 587,
*Surface, type=ELEMENT, name=_PickedSurf12, internal
__PickedSurf12_E3, E3
__PickedSurf12_E2, E2
__PickedSurf12_E4, E4
__PickedSurf12_E1, E1
*Elset, elset=__PickedSurf14_E3, internal, instance=plaque-1
  7, 45
*Elset, elset=__PickedSurf14_E2, internal, instance=plaque-1
 14, 46, 56
*Elset, elset=__PickedSurf14_E4, internal, instance=plaque-1
  91,  97, 173
*Surface, type=ELEMENT, name=_PickedSurf14, internal
__PickedSurf14_E3, E3
__PickedSurf14_E2, E2
__PickedSurf14_E4, E4
** Constraint: Constraint-1
*Coupling, constraint name=Constraint-1, ref node=_PickedSet9, surface=_PickedSurf8
*Kinematic
** Constraint: Constraint-2
*Coupling, constraint name=Constraint-2, ref node=_PickedSet11, surface=_PickedSurf10
*Kinematic
** Constraint: Constraint-3
*Coupling, constraint name=Constraint-3, ref node=_PickedSet13, surface=_PickedSurf12
*Kinematic
** Constraint: Constraint-4
*Coupling, constraint name=Constraint-4, ref node=_PickedSet15, surface=_PickedSurf14
*Kinematic
*End Assembly
** 
** MATERIALS
** 
*Material, name=acier
*Density
 7.86e-09,
*Elastic
210000., 0.26
** ----------------------------------------------------------------
** 
** STEP: analyse_modale
** 
*Step, name=analyse_modale, nlgeom=NO, perturbation
*Frequency, eigensolver=Lanczos, sim, acoustic coupling=on, normalization=mass
, , 500., , , 
** 
** BOUNDARY CONDITIONS
** 
** Name: blocage Type: Symmetry/Antisymmetry/Encastre
*Boundary
_PickedSet16, ENCASTRE
** 
** OUTPUT REQUESTS
** 
*Restart, write, frequency=0
** 
** FIELD OUTPUT: F-Output-1
** 
*Output, field
*Node Output, variable=PRESELECT
** 
** HISTORY OUTPUT: H-Output-1
** 
*Output, history
*Energy Output, variable=ALL
*End Step
