*Heading
** Job name: vibration Model name: Model-1
** Generated by: Abaqus/CAE 2025
*Preprint, echo=NO, model=NO, history=NO, contact=NO
**
** PARTS
**
*Part, name=plaque
*Node
      1,   375.366852,    24.633152,           0.
      2,   374.195282,   21.8047256,           0.
      3,   375.366852,   18.9762974,           0.
      4,   378.195282,   17.8047256,           0.
      5,   381.023712,   18.9762974,           0.
      6,   382.195282,   21.8047256,           0.
      7,   381.023712,    24.633152,           0.
      8,   378.195282,   25.8047256,           0.
      9,   18.9762974,    24.633152,           0.
     10,   17.8047256,   21.8047256,           0.
     11,   18.9762974,   18.9762974,           0.
     12,   21.8047256,   17.8047256,           0.
     13,    24.633152,   18.9762974,           0.
     14,   25.8047256,   21.8047256,           0.
     15,    24.633152,    24.633152,           0.
     16,   21.8047256,   25.8047256,           0.
     17,    24.633152,   375.366852,           0.
     18,   25.8047256,   378.195282,           0.
     19,    24.633152,   381.023712,           0.
     20,   21.8047256,   382.195282,           0.
** ... 662 like lines cut
*Element, type=S3
 1, 168,  37,  33
 2,  27, 137,  28
 3, 138,  19, 128
 4, 639, 133, 637
 5, 167, 635, 146
 6, 630, 631, 615
 7, 132,   8,   7
 8, 129,  23,  22
 9,  20,  19, 121
10, 121,  19, 138
11,  14, 123, 122
12, 171,  27,  26
13, 164, 136, 129
14, 131, 154,  32
15,   8, 132, 114
16, 634, 179, 160
17,  74, 156, 135
18, 126, 170,  37
19,   4, 140, 126
20, 143, 165,  10
** ... 32 like lines cut
*Element, type=S4R
 53,   3, 127, 140,   4
 54, 119,   3,   2, 120
 55, 144, 142,  12,  11
 56, 165,  94, 166, 144
 57,  23, 129, 136, 151
 58, 115,  24, 116, 177
 59, 117,  16,  15, 134
 60, 222, 302, 272, 238
 61, 312, 207, 260, 410
 62, 122, 134,  15,  14
 63, 135,   6,   5, 168
 64, 296, 230, 216, 277
 65, 316, 641, 209, 650
 66, 124,  29,  28, 137
 67, 167,  75,  36, 635
 68,  21, 146, 129,  22
 69, 129, 146, 635, 164
 70, 115, 150,  17,  24
 71, 116,  24,  23, 151
 72, 195, 261, 199, 185
** ... 583 like lines cut
*Nset, nset=_PickedSet2, internal, generate
   1,  682,    1
*Elset, elset=_PickedSet2, internal, generate
   1,  655,    1
** Section: tole
*Shell Section, elset=_PickedSet2, material=acier
1., 5
*End Part
**  
**
** ASSEMBLY
**
*Assembly, name=Assembly
**  
*Instance, name=plaque-1, part=plaque
*End Instance
**  
*Node
      1,   21.8047256,   378.195282,           0.
*Node
      2,   21.8047256,   21.8047256,           0.
*Node
      3,   378.195282,   21.8047256,           0.
*Node
      4,   378.195282,   378.195282,           0.
*Nset, nset=_PickedSet9, internal
 1,
*Nset, nset=_PickedSet11, internal
 2,
*Nset, nset=_PickedSet13, internal
 3,
*Nset, nset=_PickedSet15, internal
 4,
*Nset, nset=_PickedSet16, internal, generate
 1,  4,  1
*Elset, elset=__PickedSurf8_E2, internal, instance=plaque-1
   8,  71, 151
*Elset, elset=__PickedSurf8_E1, internal, instance=plaque-1
 9,
*Elset, elset=__PickedSurf8_E3, internal, instance=plaque-1
 27, 70
*Elset, elset=__PickedSurf8_E4, internal, instance=plaque-1
  68, 107
*Surface, type=ELEMENT, name=_PickedSurf8, internal
__PickedSurf8_E2, E2
__PickedSurf8_E1, E1
__PickedSurf8_E4, E4
__PickedSurf8_E3, E3
*Elset, elset=__PickedSurf10_E3, internal, instance=plaque-1
  23,  55,  62, 137, 162
*Elset, elset=__PickedSurf10_E2, internal, instance=plaque-1
  59, 122, 144
*Surface, type=ELEMENT, name=_PickedSurf10, internal
__PickedSurf10_E3, E3
__PickedSurf10_E2, E2
*Elset, elset=__PickedSurf12_E2, internal, instance=plaque-1
   7,  54,  63, 136, 138
*Elset, elset=__PickedSurf12_E4, internal, instance=plaque-1
 53, 82
*Elset, elset=__PickedSurf12_E3, internal, instance=plaque-1
 140,
*Surface, type=ELEMENT, name=_PickedSurf12, internal
__PickedSurf12_E2, E2
__PickedSurf12_E4, E4
__PickedSurf12_E3, E3
*Elset, elset=__PickedSurf14_E3, internal, instance=plaque-1
  2, 77
*Elset, elset=__PickedSurf14_E2, internal, instance=plaque-1
 12, 66, 75, 76
*Elset, elset=__PickedSurf14_E4, internal, instance=plaque-1
  94, 146
*Surface, type=ELEMENT, name=_PickedSurf14, internal
__PickedSurf14_E3, E3
__PickedSurf14_E2, E2
__PickedSurf14_E4, E4
** Constraint: Constraint-1
*Coupling, constraint name=Constraint-1, ref node=_PickedSet9, surface=_PickedSurf8
*Kinematic
** Constraint: Constraint-2
*Coupling, constraint name=Constraint-2, ref node=_PickedSet11, surface=_PickedSurf10
*Kinematic
** Constraint: Constraint-3
*Coupling, constraint name=Constraint-3, ref node=_PickedSet13, surface=_PickedSurf12
*Kinematic
** Constraint: Constraint-4
*Coupling, constraint name=Constraint-4, ref node=_PickedSet15, surface=_PickedSurf14
*Kinematic
*End Assembly
** 
** MATERIALS
** 
*Material, name=acier
*Density
 7.86e-09,
*Elastic
210000., 0.26
** ----------------------------------------------------------------
** 
** STEP: analyse_modale
** 
*Step, name=analyse_modale, nlgeom=NO, perturbation
*Frequency, eigensolver=Lanczos, sim, acoustic coupling=on, normalization=mass
, , 500., , , 
** 
** BOUNDARY CONDITIONS
** 
** Name: blocage Type: Symmetry/Antisymmetry/Encastre
*Boundary
_PickedSet16, ENCASTRE
** 
** OUTPUT REQUESTS
** 
*Restart, write, frequency=0
** 
** FIELD OUTPUT: F-Output-1
** 
*Output, field
*Node Output, variable=PRESELECT
** 
** HISTORY OUTPUT: H-Output-1
** 
*Output, history
*Energy Output, variable=ALL
*End Step
