*Heading
** Job name: vibration Model name: Model-1
** Generated by: Abaqus/CAE 2025
*Preprint, echo=NO, model=NO, history=NO, contact=NO
**
** PARTS
**
*Part, name=plaque
*Node
      1,    380.94986,   19.0501366,           0.
      2,    379.77829,   16.2217102,           0.
      3,    380.94986,   13.3932829,           0.
      4,    383.77829,   12.2217102,           0.
      5,    386.60672,   13.3932829,           0.
      6,    387.77829,   16.2217102,           0.
      7,    386.60672,   19.0501366,           0.
      8,    383.77829,   20.2217102,           0.
      9,   13.3932829,   19.0501366,           0.
     10,   12.2217102,   16.2217102,           0.
     11,   13.3932829,   13.3932829,           0.
     12,   16.2217102,   12.2217102,           0.
     13,   19.0501366,   13.3932829,           0.
     14,   20.2217102,   16.2217102,           0.
     15,   19.0501366,   19.0501366,           0.
     16,   16.2217102,   20.2217102,           0.
     17,   19.0501366,    380.94986,           0.
     18,   20.2217102,    383.77829,           0.
     19,   19.0501366,    386.60672,           0.
     20,   16.2217102,    387.77829,           0.
** ... 673 like lines cut
*Element, type=S3
 1, 163, 136, 637
 2, 153,  30, 125
 3,  37, 130, 604
 4, 614, 236,  73
 5, 605, 136, 163
 6, 225, 112, 111
 7, 630, 609, 119
 8, 119,  20,  19
 9, 143, 142,  34
10, 619,  34,  55
11, 123,  10,   9
12, 612,  29,  28
13, 139,  35,  93
14, 130,   5,   4
15, 610,  75, 119
16,  37, 604, 169
17, 644, 629,  56
18, 142,  94,  34
19, 143, 608, 142
20,  27, 127,  28
** ... 46 like lines cut
*Element, type=S4R
 67,   6,   5, 118, 603
 68, 118, 145, 138, 620
 69,   4,   3, 604, 130
 70, 122,  12,  11, 143
 71, 149, 142, 608, 123
 72, 167,  94, 149, 115
 73, 131, 225, 114,  23
 74,  15, 606, 136,  16
 75, 489, 514, 482, 669
 76, 227,  40,  39, 230
 77, 124,  14,  13, 607
 78, 206,   8,   7, 116
 79, 607, 121, 156, 239
 80, 239, 156,  55,  54
 81, 151,   2,   1, 134
 82, 200, 199, 249, 252
 83, 235,  59,  58, 226
 84, 613, 159, 153, 125
 85, 139, 612,  28, 127
 86,  19, 132, 610, 119
** ... 587 like lines cut
*Nset, nset=_PickedSet2, internal, generate
   1,  693,    1
*Elset, elset=_PickedSet2, internal, generate
   1,  673,    1
** Section: tole
*Shell Section, elset=_PickedSet2, material=acier
1., 5
*End Part
**  
**
** ASSEMBLY
**
*Assembly, name=Assembly
**  
*Instance, name=plaque-1, part=plaque
*End Instance
**  
*Node
      1,   16.2217102,    383.77829,           0.
*Node
      2,   16.2217102,   16.2217102,           0.
*Node
      3,    383.77829,   16.2217102,           0.
*Node
      4,    383.77829,    383.77829,           0.
*Nset, nset=_PickedSet9, internal
 1,
*Nset, nset=_PickedSet11, internal
 2,
*Nset, nset=_PickedSet13, internal
 3,
*Nset, nset=_PickedSet15, internal
 4,
*Nset, nset=_PickedSet16, internal, generate
 1,  4,  1
*Elset, elset=__PickedSurf8_E2, internal, instance=plaque-1
   8, 172, 183, 184, 185
*Elset, elset=__PickedSurf8_E4, internal, instance=plaque-1
 88,
*Elset, elset=__PickedSurf8_E3, internal, instance=plaque-1
 89, 90
*Surface, type=ELEMENT, name=_PickedSurf8, internal
__PickedSurf8_E2, E2
__PickedSurf8_E4, E4
__PickedSurf8_E3, E3
*Elset, elset=__PickedSurf10_E2, internal, instance=plaque-1
  11,  70,  77, 164
*Elset, elset=__PickedSurf10_E4, internal, instance=plaque-1
 74,
*Elset, elset=__PickedSurf10_E1, internal, instance=plaque-1
 147, 173, 175
*Surface, type=ELEMENT, name=_PickedSurf10, internal
__PickedSurf10_E2, E2
__PickedSurf10_E4, E4
__PickedSurf10_E1, E1
*Elset, elset=__PickedSurf12_E2, internal, instance=plaque-1
  14,  78,  81, 165, 171
*Elset, elset=__PickedSurf12_E1, internal, instance=plaque-1
  67,  69, 166
*Surface, type=ELEMENT, name=_PickedSurf12, internal
__PickedSurf12_E2, E2
__PickedSurf12_E1, E1
*Elset, elset=__PickedSurf14_E2, internal, instance=plaque-1
  12, 163, 180
*Elset, elset=__PickedSurf14_E3, internal, instance=plaque-1
 20, 94
*Elset, elset=__PickedSurf14_E1, internal, instance=plaque-1
  96, 178
*Elset, elset=__PickedSurf14_E4, internal, instance=plaque-1
 144,
*Surface, type=ELEMENT, name=_PickedSurf14, internal
__PickedSurf14_E2, E2
__PickedSurf14_E3, E3
__PickedSurf14_E4, E4
__PickedSurf14_E1, E1
** Constraint: Constraint-1
*Coupling, constraint name=Constraint-1, ref node=_PickedSet9, surface=_PickedSurf8
*Kinematic
** Constraint: Constraint-2
*Coupling, constraint name=Constraint-2, ref node=_PickedSet11, surface=_PickedSurf10
*Kinematic
** Constraint: Constraint-3
*Coupling, constraint name=Constraint-3, ref node=_PickedSet13, surface=_PickedSurf12
*Kinematic
** Constraint: Constraint-4
*Coupling, constraint name=Constraint-4, ref node=_PickedSet15, surface=_PickedSurf14
*Kinematic
*End Assembly
** 
** MATERIALS
** 
*Material, name=acier
*Density
 7.86e-09,
*Elastic
210000., 0.26
** ----------------------------------------------------------------
** 
** STEP: analyse_modale
** 
*Step, name=analyse_modale, nlgeom=NO, perturbation
*Frequency, eigensolver=Lanczos, sim, acoustic coupling=on, normalization=mass
, , 500., , , 
** 
** BOUNDARY CONDITIONS
** 
** Name: blocage Type: Symmetry/Antisymmetry/Encastre
*Boundary
_PickedSet16, ENCASTRE
** 
** OUTPUT REQUESTS
** 
*Restart, write, frequency=0
** 
** FIELD OUTPUT: F-Output-1
** 
*Output, field
*Node Output, variable=PRESELECT
** 
** HISTORY OUTPUT: H-Output-1
** 
*Output, history
*Energy Output, variable=ALL
*End Step
