*Heading
** Job name: vibration Model name: Model-1
** Generated by: Abaqus/CAE 2025
*Preprint, echo=NO, model=NO, history=NO, contact=NO
**
** PARTS
**
*Part, name=plaque
*Node
      1,    368.81488,   31.1851177,           0.
      2,   367.643311,   28.3566914,           0.
      3,    368.81488,   25.5282631,           0.
      4,   371.643311,   24.3566914,           0.
      5,   374.471741,   25.5282631,           0.
      6,   375.643311,   28.3566914,           0.
      7,   374.471741,   31.1851177,           0.
      8,   371.643311,   32.3566895,           0.
      9,   25.5282631,   31.1851177,           0.
     10,   24.3566914,   28.3566914,           0.
     11,   25.5282631,   25.5282631,           0.
     12,   28.3566914,   24.3566914,           0.
     13,   31.1851177,   25.5282631,           0.
     14,   32.3566895,   28.3566914,           0.
     15,   31.1851177,   31.1851177,           0.
     16,   28.3566914,   32.3566895,           0.
     17,   31.1851177,    368.81488,           0.
     18,   32.3566895,   371.643311,           0.
     19,   31.1851177,   374.471741,           0.
     20,   28.3566914,   375.643311,           0.
** ... 764 like lines cut
*Element, type=S3
 1, 157, 136, 171
 2,  33,  74, 169
 3, 170,  93, 706
 4, 164, 138, 159
 5, 713, 133, 141
 6, 168,  74,  73
 7, 122, 710, 153
 8, 713, 169, 140
 9,  56, 170, 142
10,  57, 712, 187
11, 172,  55, 707
12, 242, 237, 221
13, 319, 736, 308
14, 585, 553, 544
15, 502, 445, 465
16, 506, 468, 476
17, 782, 687, 667
18, 639, 632, 616
19, 781, 667, 680
20, 670, 615, 638
** ... 10 like lines cut
*Element, type=S4R
 31,   5, 151, 119,   6
 32, 151,   5,   4, 133
 33, 120, 152,   3,   2
 34, 144, 124, 125, 147
 35, 125, 126, 714, 147
 36, 126, 125,  11,  10
 37, 127,   9, 117, 156
 38, 167,  16, 115, 702
 39, 175,  24, 118, 186
 40, 115,  16,  15, 154
 41, 163, 183, 154, 123
 42, 203, 218, 200, 189
 43, 273, 253, 193, 176
 44, 123, 154,  15,  14
 45, 124, 128,  13,  12
 46, 722, 128, 124, 144
 47, 119, 139,   7,   6
 48, 120,   2, 121, 166
 49, 334, 336, 305, 317
 50, 254, 209, 236, 731
** ... 696 like lines cut
*Nset, nset=_PickedSet2, internal, generate
   1,  784,    1
*Elset, elset=_PickedSet2, internal, generate
   1,  746,    1
** Section: tole
*Shell Section, elset=_PickedSet2, material=acier
1., 5
*End Part
**  
**
** ASSEMBLY
**
*Assembly, name=Assembly
**  
*Instance, name=plaque-1, part=plaque
*End Instance
**  
*Node
      1,   28.3566914,   371.643311,           0.
*Node
      2,   28.3566914,   28.3566914,           0.
*Node
      3,   371.643311,   28.3566914,           0.
*Node
      4,   371.643311,   371.643311,           0.
*Nset, nset=_PickedSet9, internal
 1,
*Nset, nset=_PickedSet11, internal
 2,
*Nset, nset=_PickedSet13, internal
 3,
*Nset, nset=_PickedSet15, internal
 4,
*Nset, nset=_PickedSet16, internal, generate
 1,  4,  1
*Elset, elset=__PickedSurf8_E3, internal, instance=plaque-1
 53,
*Elset, elset=__PickedSurf8_E2, internal, instance=plaque-1
  54,  56, 119, 134
*Elset, elset=__PickedSurf8_E4, internal, instance=plaque-1
 55, 92
*Elset, elset=__PickedSurf8_E1, internal, instance=plaque-1
 120,
*Surface, type=ELEMENT, name=_PickedSurf8, internal
__PickedSurf8_E3, E3
__PickedSurf8_E2, E2
__PickedSurf8_E4, E4
__PickedSurf8_E1, E1
*Elset, elset=__PickedSurf10_E3, internal, instance=plaque-1
 36, 44, 45
*Elset, elset=__PickedSurf10_E2, internal, instance=plaque-1
 40,
*Elset, elset=__PickedSurf10_E4, internal, instance=plaque-1
 107,
*Elset, elset=__PickedSurf10_E1, internal, instance=plaque-1
 124, 126, 127
*Surface, type=ELEMENT, name=_PickedSurf10, internal
__PickedSurf10_E3, E3
__PickedSurf10_E2, E2
__PickedSurf10_E4, E4
__PickedSurf10_E1, E1
*Elset, elset=__PickedSurf12_E4, internal, instance=plaque-1
 31, 86, 89
*Elset, elset=__PickedSurf12_E2, internal, instance=plaque-1
  32,  88, 133
*Elset, elset=__PickedSurf12_E3, internal, instance=plaque-1
 33, 47
*Surface, type=ELEMENT, name=_PickedSurf12, internal
__PickedSurf12_E4, E4
__PickedSurf12_E2, E2
__PickedSurf12_E3, E3
*Elset, elset=__PickedSurf14_E3, internal, instance=plaque-1
  58, 132
*Elset, elset=__PickedSurf14_E2, internal, instance=plaque-1
  59,  60, 116, 129
*Elset, elset=__PickedSurf14_E4, internal, instance=plaque-1
  77, 101
*Surface, type=ELEMENT, name=_PickedSurf14, internal
__PickedSurf14_E3, E3
__PickedSurf14_E2, E2
__PickedSurf14_E4, E4
** Constraint: Constraint-1
*Coupling, constraint name=Constraint-1, ref node=_PickedSet9, surface=_PickedSurf8
*Kinematic
** Constraint: Constraint-2
*Coupling, constraint name=Constraint-2, ref node=_PickedSet11, surface=_PickedSurf10
*Kinematic
** Constraint: Constraint-3
*Coupling, constraint name=Constraint-3, ref node=_PickedSet13, surface=_PickedSurf12
*Kinematic
** Constraint: Constraint-4
*Coupling, constraint name=Constraint-4, ref node=_PickedSet15, surface=_PickedSurf14
*Kinematic
*End Assembly
** 
** MATERIALS
** 
*Material, name=acier
*Density
 7.86e-09,
*Elastic
210000., 0.26
** ----------------------------------------------------------------
** 
** STEP: analyse_modale
** 
*Step, name=analyse_modale, nlgeom=NO, perturbation
*Frequency, eigensolver=Lanczos, sim, acoustic coupling=on, normalization=mass
, , 500., , , 
** 
** BOUNDARY CONDITIONS
** 
** Name: blocage Type: Symmetry/Antisymmetry/Encastre
*Boundary
_PickedSet16, ENCASTRE
** 
** OUTPUT REQUESTS
** 
*Restart, write, frequency=0
** 
** FIELD OUTPUT: F-Output-1
** 
*Output, field
*Node Output, variable=PRESELECT
** 
** HISTORY OUTPUT: H-Output-1
** 
*Output, history
*Energy Output, variable=ALL
*End Step
