*Heading
** Job name: vibration Model name: Model-1
** Generated by: Abaqus/CAE 2025
*Preprint, echo=NO, model=NO, history=NO, contact=NO
**
** PARTS
**
*Part, name=plaque
*Node
      1,   374.977631,   25.0223827,           0.
      2,    373.80603,   22.1939564,           0.
      3,   374.977631,     19.36553,           0.
      4,    377.80603,   18.1939564,           0.
      5,    380.63446,     19.36553,           0.
      6,    381.80603,   22.1939564,           0.
      7,    380.63446,   25.0223827,           0.
      8,    377.80603,   26.1939564,           0.
      9,     19.36553,   25.0223827,           0.
     10,   18.1939564,   22.1939564,           0.
     11,     19.36553,     19.36553,           0.
     12,   22.1939564,   18.1939564,           0.
     13,   25.0223827,     19.36553,           0.
     14,   26.1939564,   22.1939564,           0.
     15,   25.0223827,   25.0223827,           0.
     16,   22.1939564,   26.1939564,           0.
     17,   25.0223827,   374.977631,           0.
     18,   26.1939564,    377.80603,           0.
     19,   25.0223827,    380.63446,           0.
     20,   22.1939564,    381.80603,           0.
** ... 706 like lines cut
*Element, type=S3
 1, 115,   1, 113
 2, 336, 164, 663
 3, 650, 150, 631
 4,  27, 634,  28
 5,   5, 625,   6
 6,   8, 149, 130
 7, 159,  74,  73
 8, 224, 166, 179
 9, 221, 661, 140
10, 342, 303,  95
11, 339, 281, 280
12, 342,  95, 156
13, 684, 355, 407
14, 709, 553, 566
15, 504, 422, 421
16, 472, 521, 475
17, 501, 455, 498
18, 573, 544, 549
19, 543, 548, 509
20, 599, 579, 575
** ... 22 like lines cut
*Element, type=S4R
 43,  37,  33, 175, 645
 44, 142, 172, 139,  12
 45, 652, 653, 142, 116
 46,  10,   9, 117, 141
 47, 117,   9,  16, 152
 48, 123,  23, 120, 128
 49, 220,  15,  14, 118
 50, 147, 280, 281, 122
 51, 188, 189,  48,  47
 52,  40,  39, 219, 216
 53,  13, 140, 118,  14
 54, 149,   8,   7, 626
 55, 139, 140,  13,  12
 56, 102, 101, 238, 202
 57, 640, 227,  58,  57
 58,  21, 629, 144,  22
 59, 144, 171, 132,  22
 60, 146, 121, 133, 158
 61, 124,  24, 123, 630
 62, 210, 230,  77,  76
** ... 632 like lines cut
*Nset, nset=_PickedSet2, internal, generate
   1,  726,    1
*Elset, elset=_PickedSet2, internal, generate
   1,  694,    1
** Section: tole
*Shell Section, elset=_PickedSet2, material=acier
1., 5
*End Part
**  
**
** ASSEMBLY
**
*Assembly, name=Assembly
**  
*Instance, name=plaque-1, part=plaque
*End Instance
**  
*Node
      1,   22.1939564,    377.80603,           0.
*Node
      2,   22.1939564,   22.1939564,           0.
*Node
      3,    377.80603,   22.1939564,           0.
*Node
      4,    377.80603,    377.80603,           0.
*Nset, nset=_PickedSet9, internal
 1,
*Nset, nset=_PickedSet11, internal
 2,
*Nset, nset=_PickedSet13, internal
 3,
*Nset, nset=_PickedSet15, internal
 4,
*Nset, nset=_PickedSet16, internal, generate
 1,  4,  1
*Elset, elset=__PickedSurf8_E2, internal, instance=plaque-1
  24, 123
*Elset, elset=__PickedSurf8_E4, internal, instance=plaque-1
  58, 131, 172
*Elset, elset=__PickedSurf8_E3, internal, instance=plaque-1
 132, 146
*Elset, elset=__PickedSurf8_E1, internal, instance=plaque-1
 148,
*Surface, type=ELEMENT, name=_PickedSurf8, internal
__PickedSurf8_E2, E2
__PickedSurf8_E4, E4
__PickedSurf8_E3, E3
__PickedSurf8_E1, E1
*Elset, elset=__PickedSurf10_E1, internal, instance=plaque-1
 46,
*Elset, elset=__PickedSurf10_E2, internal, instance=plaque-1
  47,  49, 134, 135
*Elset, elset=__PickedSurf10_E4, internal, instance=plaque-1
  53, 111
*Elset, elset=__PickedSurf10_E3, internal, instance=plaque-1
 55,
*Surface, type=ELEMENT, name=_PickedSurf10, internal
__PickedSurf10_E1, E1
__PickedSurf10_E2, E2
__PickedSurf10_E4, E4
__PickedSurf10_E3, E3
*Elset, elset=__PickedSurf12_E3, internal, instance=plaque-1
  5, 67
*Elset, elset=__PickedSurf12_E2, internal, instance=plaque-1
 54,
*Elset, elset=__PickedSurf12_E4, internal, instance=plaque-1
  92, 143, 159, 165
*Elset, elset=__PickedSurf12_E1, internal, instance=plaque-1
 128,
*Surface, type=ELEMENT, name=_PickedSurf12, internal
__PickedSurf12_E3, E3
__PickedSurf12_E2, E2
__PickedSurf12_E4, E4
__PickedSurf12_E1, E1
*Elset, elset=__PickedSurf14_E3, internal, instance=plaque-1
 4,
*Elset, elset=__PickedSurf14_E2, internal, instance=plaque-1
  65, 161
*Elset, elset=__PickedSurf14_E4, internal, instance=plaque-1
 125, 140, 164
*Elset, elset=__PickedSurf14_E1, internal, instance=plaque-1
 138, 142
*Surface, type=ELEMENT, name=_PickedSurf14, internal
__PickedSurf14_E3, E3
__PickedSurf14_E2, E2
__PickedSurf14_E4, E4
__PickedSurf14_E1, E1
** Constraint: Constraint-1
*Coupling, constraint name=Constraint-1, ref node=_PickedSet9, surface=_PickedSurf8
*Kinematic
** Constraint: Constraint-2
*Coupling, constraint name=Constraint-2, ref node=_PickedSet11, surface=_PickedSurf10
*Kinematic
** Constraint: Constraint-3
*Coupling, constraint name=Constraint-3, ref node=_PickedSet13, surface=_PickedSurf12
*Kinematic
** Constraint: Constraint-4
*Coupling, constraint name=Constraint-4, ref node=_PickedSet15, surface=_PickedSurf14
*Kinematic
*End Assembly
** 
** MATERIALS
** 
*Material, name=acier
*Density
 7.86e-09,
*Elastic
210000., 0.26
** ----------------------------------------------------------------
** 
** STEP: analyse_modale
** 
*Step, name=analyse_modale, nlgeom=NO, perturbation
*Frequency, eigensolver=Lanczos, sim, acoustic coupling=on, normalization=mass
, , 500., , , 
** 
** BOUNDARY CONDITIONS
** 
** Name: blocage Type: Symmetry/Antisymmetry/Encastre
*Boundary
_PickedSet16, ENCASTRE
** 
** OUTPUT REQUESTS
** 
*Restart, write, frequency=0
** 
** FIELD OUTPUT: F-Output-1
** 
*Output, field
*Node Output, variable=PRESELECT
** 
** HISTORY OUTPUT: H-Output-1
** 
*Output, history
*Energy Output, variable=ALL
*End Step
