*Heading
** Job name: vibration Model name: Model-1
** Generated by: Abaqus/CAE 2025
*Preprint, echo=NO, model=NO, history=NO, contact=NO
**
** PARTS
**
*Part, name=plaque
*Node
      1,   390.382965,   9.61702251,           0.
      2,   389.211395,   6.78859568,           0.
      3,   393.211395,   2.78859568,           0.
      4,   396.039825,    3.9601686,           0.
      5,   397.211395,   6.78859568,           0.
      6,   396.039825,   9.61702251,           0.
      7,   393.211395,   10.7885962,           0.
      8,   2.78859568,   6.78859568,           0.
      9,    3.9601686,    3.9601686,           0.
     10,   6.78859568,   2.78859568,           0.
     11,   9.61702251,    3.9601686,           0.
     12,   10.7885962,   6.78859568,           0.
     13,   9.61702251,   9.61702251,           0.
     14,   6.78859568,   10.7885962,           0.
     15,   9.61702251,   390.382965,           0.
     16,   10.7885962,   393.211395,           0.
     17,   6.78859568,   397.211395,           0.
     18,    3.9601686,   396.039825,           0.
     19,   2.78859568,   393.211395,           0.
     20,    3.9601686,   390.382965,           0.
** ... 581 like lines cut
*Element, type=S3
 1, 550,  30,   8
 2, 557, 121,  56
 3, 554,  32,  17
 4, 119, 555, 112
 5,  93, 560, 569
 6, 569,  24,  31
 7, 558, 557,  56
 8,  32, 554,  75
 9, 550,  94,  30
10, 238,  95, 122
11, 559, 162,  56
12, 115, 166,  13
13, 555,  21,  20
14, 555, 119,  21
15, 233, 298, 238
16, 559,  56, 121
17, 225,  76, 163
18,  38, 161, 212
19, 151, 542,  93
20, 573, 580, 567
** ... 40 like lines cut
*Element, type=S4R
 61, 548, 120,   7,   6
 62,  33, 546, 547,   3
 63, 549, 551, 234,  94
 64, 556, 555,  20,  19
 65, 171, 167, 235, 574
 66, 551, 166, 543, 234
 67, 551,  14,  13, 166
 68,  51,  50, 128, 176
 69, 177, 138, 137, 180
 70,  12, 114, 115,  13
 71, 113, 565,  37, 546
 72, 169, 131, 122, 543
 73, 349, 164, 236, 576
 74, 102, 101, 174, 152
 75, 178, 148, 147, 185
 76, 237, 162, 575, 151
 77, 117, 564,  75, 553
 78,  35, 553, 554,  17
 79, 117,  16, 118, 552
 80,  15,  21, 168, 167
** ... 498 like lines cut
*Nset, nset=_PickedSet2, internal, generate
   1,  601,    1
*Elset, elset=_PickedSet2, internal, generate
   1,  578,    1
** Section: tole
*Shell Section, elset=_PickedSet2, material=acier
1., 5
*End Part
**  
**
** ASSEMBLY
**
*Assembly, name=Assembly
**  
*Instance, name=plaque-1, part=plaque
*End Instance
**  
*Node
      1,   6.78859568,   393.211395,           0.
*Node
      2,   6.78859568,   6.78859568,           0.
*Node
      3,   393.211395,   6.78859568,           0.
*Node
      4,   393.211395,   393.211395,           0.
*Nset, nset=_PickedSet9, internal
 1,
*Nset, nset=_PickedSet11, internal
 2,
*Nset, nset=_PickedSet13, internal
 3,
*Nset, nset=_PickedSet15, internal
 4,
*Nset, nset=_PickedSet16, internal, generate
 1,  4,  1
*Elset, elset=__PickedSurf8_E2, internal, instance=plaque-1
  13,  42, 151
*Elset, elset=__PickedSurf8_E3, internal, instance=plaque-1
 40, 64
*Elset, elset=__PickedSurf8_E4, internal, instance=plaque-1
 78,
*Elset, elset=__PickedSurf8_E1, internal, instance=plaque-1
  80, 150
*Surface, type=ELEMENT, name=_PickedSurf8, internal
__PickedSurf8_E2, E2
__PickedSurf8_E3, E3
__PickedSurf8_E4, E4
__PickedSurf8_E1, E1
*Elset, elset=__PickedSurf10_E2, internal, instance=plaque-1
 21, 67
*Elset, elset=__PickedSurf10_E3, internal, instance=plaque-1
  37, 147, 564, 565
*Elset, elset=__PickedSurf10_E4, internal, instance=plaque-1
  70, 563
*Surface, type=ELEMENT, name=_PickedSurf10, internal
__PickedSurf10_E2, E2
__PickedSurf10_E3, E3
__PickedSurf10_E4, E4
*Elset, elset=__PickedSurf12_E3, internal, instance=plaque-1
 33, 61
*Elset, elset=__PickedSurf12_E2, internal, instance=plaque-1
 49,
*Elset, elset=__PickedSurf12_E4, internal, instance=plaque-1
  62, 146
*Elset, elset=__PickedSurf12_E1, internal, instance=plaque-1
  84, 144, 145
*Surface, type=ELEMENT, name=_PickedSurf12, internal
__PickedSurf12_E3, E3
__PickedSurf12_E2, E2
__PickedSurf12_E4, E4
__PickedSurf12_E1, E1
*Elset, elset=__PickedSurf14_E3, internal, instance=plaque-1
 45, 83
*Elset, elset=__PickedSurf14_E2, internal, instance=plaque-1
  51, 100, 199
*Elset, elset=__PickedSurf14_E4, internal, instance=plaque-1
  82, 155
*Elset, elset=__PickedSurf14_E1, internal, instance=plaque-1
 149,
*Surface, type=ELEMENT, name=_PickedSurf14, internal
__PickedSurf14_E3, E3
__PickedSurf14_E2, E2
__PickedSurf14_E4, E4
__PickedSurf14_E1, E1
** Constraint: Constraint-1
*Coupling, constraint name=Constraint-1, ref node=_PickedSet9, surface=_PickedSurf8
*Kinematic
** Constraint: Constraint-2
*Coupling, constraint name=Constraint-2, ref node=_PickedSet11, surface=_PickedSurf10
*Kinematic
** Constraint: Constraint-3
*Coupling, constraint name=Constraint-3, ref node=_PickedSet13, surface=_PickedSurf12
*Kinematic
** Constraint: Constraint-4
*Coupling, constraint name=Constraint-4, ref node=_PickedSet15, surface=_PickedSurf14
*Kinematic
*End Assembly
** 
** MATERIALS
** 
*Material, name=acier
*Density
 7.86e-09,
*Elastic
210000., 0.26
** ----------------------------------------------------------------
** 
** STEP: analyse_modale
** 
*Step, name=analyse_modale, nlgeom=NO, perturbation
*Frequency, eigensolver=Lanczos, sim, acoustic coupling=on, normalization=mass
, , 500., , , 
** 
** BOUNDARY CONDITIONS
** 
** Name: blocage Type: Symmetry/Antisymmetry/Encastre
*Boundary
_PickedSet16, ENCASTRE
** 
** OUTPUT REQUESTS
** 
*Restart, write, frequency=0
** 
** FIELD OUTPUT: F-Output-1
** 
*Output, field
*Node Output, variable=PRESELECT
** 
** HISTORY OUTPUT: H-Output-1
** 
*Output, history
*Energy Output, variable=ALL
*End Step
