*Heading
** Job name: vibration Model name: Model-1
** Generated by: Abaqus/CAE 2025
*Preprint, echo=NO, model=NO, history=NO, contact=NO
**
** PARTS
**
*Part, name=plaque
*Node
      1,   369.021393,   30.9786148,           0.
      2,   367.849823,   28.1501884,           0.
      3,   369.021393,   25.3217602,           0.
      4,   371.849823,   24.1501884,           0.
      5,   374.678253,   25.3217602,           0.
      6,   375.849823,   28.1501884,           0.
      7,   374.678253,   30.9786148,           0.
      8,   371.849823,   32.1501884,           0.
      9,   25.3217602,   30.9786148,           0.
     10,   24.1501884,   28.1501884,           0.
     11,   25.3217602,   25.3217602,           0.
     12,   28.1501884,   24.1501884,           0.
     13,   30.9786148,   25.3217602,           0.
     14,   32.1501884,   28.1501884,           0.
     15,   30.9786148,   30.9786148,           0.
     16,   28.1501884,   32.1501884,           0.
     17,   30.9786148,   369.021393,           0.
     18,   32.1501884,   371.849823,           0.
     19,   30.9786148,   374.678253,           0.
     20,   28.1501884,   375.849823,           0.
** ... 764 like lines cut
*Element, type=S3
 1, 668, 137,  12
 2, 137,  13,  12
 3,  20, 144,  21
 4, 132, 125, 688
 5, 694, 193, 223
 6, 161,  55, 668
 7, 253, 249, 235
 8, 686,   6,   5
 9, 161, 119, 140
10, 673, 171, 149
11, 158,  74,  73
12, 161, 668, 119
13, 707, 181, 202
14, 686, 158, 130
15,  56, 165, 133
16, 688,  38,  37
17, 688, 125, 143
18, 133,  57,  56
19, 328, 747, 320
20, 199, 711, 220
** ... 18 like lines cut
*Element, type=S4R
 39, 686,   5, 132, 160
 40, 132,   5,   4, 125
 41, 156, 701,   2, 117
 42, 156, 117, 153, 702
 43,  10,   9, 670, 140
 44, 131, 128,  16,  15
 45, 126, 147,  23,  22
 46, 169,  24, 116, 176
 47, 191, 677, 687, 159
 48, 188, 229, 197, 159
 49, 228, 232, 712, 180
 50, 118, 131,  15,  14
 51, 703, 669, 237, 230
 52, 686, 130,   7,   6
 53, 315, 289, 224, 214
 54, 223, 193, 215, 241
 55, 141, 182, 152, 121
 56,  29, 122, 141, 121
 57, 683,  19, 150, 691
 58, 683, 134,  20,  19
** ... 692 like lines cut
*Nset, nset=_PickedSet2, internal, generate
   1,  784,    1
*Elset, elset=_PickedSet2, internal, generate
   1,  750,    1
** Section: tole
*Shell Section, elset=_PickedSet2, material=acier
1., 5
*End Part
**  
**
** ASSEMBLY
**
*Assembly, name=Assembly
**  
*Instance, name=plaque-1, part=plaque
*End Instance
**  
*Node
      1,   28.1501884,   371.849823,           0.
*Node
      2,   28.1501884,   28.1501884,           0.
*Node
      3,   371.849823,   28.1501884,           0.
*Node
      4,   371.849823,   371.849823,           0.
*Nset, nset=_PickedSet9, internal
 1,
*Nset, nset=_PickedSet11, internal
 2,
*Nset, nset=_PickedSet13, internal
 3,
*Nset, nset=_PickedSet15, internal
 4,
*Nset, nset=_PickedSet16, internal, generate
 1,  4,  1
*Elset, elset=__PickedSurf8_E3, internal, instance=plaque-1
  3, 45, 58
*Elset, elset=__PickedSurf8_E2, internal, instance=plaque-1
  60, 129, 132, 140
*Elset, elset=__PickedSurf8_E1, internal, instance=plaque-1
 142,
*Surface, type=ELEMENT, name=_PickedSurf8, internal
__PickedSurf8_E3, E3
__PickedSurf8_E2, E2
__PickedSurf8_E1, E1
*Elset, elset=__PickedSurf10_E2, internal, instance=plaque-1
   2, 134
*Elset, elset=__PickedSurf10_E1, internal, instance=plaque-1
  43, 133
*Elset, elset=__PickedSurf10_E3, internal, instance=plaque-1
  44,  50, 115
*Elset, elset=__PickedSurf10_E4, internal, instance=plaque-1
 83,
*Surface, type=ELEMENT, name=_PickedSurf10, internal
__PickedSurf10_E2, E2
__PickedSurf10_E1, E1
__PickedSurf10_E4, E4
__PickedSurf10_E3, E3
*Elset, elset=__PickedSurf12_E2, internal, instance=plaque-1
   8,  40,  99, 128, 131
*Elset, elset=__PickedSurf12_E3, internal, instance=plaque-1
 52,
*Elset, elset=__PickedSurf12_E1, internal, instance=plaque-1
 70,
*Elset, elset=__PickedSurf12_E4, internal, instance=plaque-1
 97,
*Surface, type=ELEMENT, name=_PickedSurf12, internal
__PickedSurf12_E2, E2
__PickedSurf12_E3, E3
__PickedSurf12_E4, E4
__PickedSurf12_E1, E1
*Elset, elset=__PickedSurf14_E3, internal, instance=plaque-1
 62, 64, 86
*Elset, elset=__PickedSurf14_E2, internal, instance=plaque-1
  63, 127, 137
*Elset, elset=__PickedSurf14_E4, internal, instance=plaque-1
  88, 111
*Surface, type=ELEMENT, name=_PickedSurf14, internal
__PickedSurf14_E3, E3
__PickedSurf14_E2, E2
__PickedSurf14_E4, E4
** Constraint: Constraint-1
*Coupling, constraint name=Constraint-1, ref node=_PickedSet9, surface=_PickedSurf8
*Kinematic
** Constraint: Constraint-2
*Coupling, constraint name=Constraint-2, ref node=_PickedSet11, surface=_PickedSurf10
*Kinematic
** Constraint: Constraint-3
*Coupling, constraint name=Constraint-3, ref node=_PickedSet13, surface=_PickedSurf12
*Kinematic
** Constraint: Constraint-4
*Coupling, constraint name=Constraint-4, ref node=_PickedSet15, surface=_PickedSurf14
*Kinematic
*End Assembly
** 
** MATERIALS
** 
*Material, name=acier
*Density
 7.86e-09,
*Elastic
210000., 0.26
** ----------------------------------------------------------------
** 
** STEP: analyse_modale
** 
*Step, name=analyse_modale, nlgeom=NO, perturbation
*Frequency, eigensolver=Lanczos, sim, acoustic coupling=on, normalization=mass
, , 500., , , 
** 
** BOUNDARY CONDITIONS
** 
** Name: blocage Type: Symmetry/Antisymmetry/Encastre
*Boundary
_PickedSet16, ENCASTRE
** 
** OUTPUT REQUESTS
** 
*Restart, write, frequency=0
** 
** FIELD OUTPUT: F-Output-1
** 
*Output, field
*Node Output, variable=PRESELECT
** 
** HISTORY OUTPUT: H-Output-1
** 
*Output, history
*Energy Output, variable=ALL
*End Step
