*Heading
** Job name: vibration Model name: Model-1
** Generated by: Abaqus/CAE 2025
*Preprint, echo=NO, model=NO, history=NO, contact=NO
**
** PARTS
**
*Part, name=plaque
*Node
      1,   378.298767,   21.7012291,           0.
      2,   377.127197,   18.8728008,           0.
      3,   378.298767,   16.0443745,           0.
      4,   381.127197,   14.8728018,           0.
      5,   383.955627,   16.0443745,           0.
      6,   385.127197,   18.8728008,           0.
      7,   383.955627,   21.7012291,           0.
      8,   381.127197,   22.8728008,           0.
      9,   16.0443745,   21.7012291,           0.
     10,   14.8728018,   18.8728008,           0.
     11,   16.0443745,   16.0443745,           0.
     12,   18.8728008,   14.8728018,           0.
     13,   21.7012291,   16.0443745,           0.
     14,   22.8728008,   18.8728008,           0.
     15,   21.7012291,   21.7012291,           0.
     16,   18.8728008,   22.8728008,           0.
     17,   21.7012291,   378.298767,           0.
     18,   22.8728008,   381.127197,           0.
     19,   21.7012291,   383.955627,           0.
     20,   18.8728008,   385.127197,           0.
** ... 677 like lines cut
*Element, type=S3
 1,  24, 610, 114
 2, 637, 616,  36
 3,  11, 149,  12
 4, 125, 126, 152
 5, 608, 145, 116
 6, 633, 151, 120
 7, 631,  93, 152
 8, 126, 125,  27
 9, 155,  36, 112
10, 156, 145, 641
11, 645, 141, 129
12, 636, 635, 613
13, 173, 115, 140
14, 609, 186, 163
15, 182, 133, 159
16, 630, 620, 187
17, 183, 166, 180
18, 171, 146, 166
19, 639, 629, 628
20, 638,  55,  54
** ... 36 like lines cut
*Element, type=S4R
 57, 607,   6,   5, 128
 58, 140,   6, 607, 154
 59, 129, 141,   4,   3
 60, 641, 650, 645, 156
 61, 151, 149,  11, 120
 62, 121, 150,  10,   9
 63, 113, 170, 121,   9
 64, 150, 121, 170,  94
 65, 626, 111, 137, 130
 66, 295, 161, 137, 111
 67, 118, 159,  15,  14
 68, 198, 199,  48,  47
 69,  41,  40, 192, 247
 70, 122,  14,  13, 629
 71,   8,   7, 160, 134
 72, 176, 639, 638,  54
 73, 173,  73, 620, 630
 74, 134, 138,   1,   8
 75, 202, 201, 250, 272
 76, 233,  60,  59, 239
** ... 596 like lines cut
*Nset, nset=_PickedSet2, internal, generate
   1,  697,    1
*Elset, elset=_PickedSet2, internal, generate
   1,  672,    1
** Section: tole
*Shell Section, elset=_PickedSet2, material=acier
1., 5
*End Part
**  
**
** ASSEMBLY
**
*Assembly, name=Assembly
**  
*Instance, name=plaque-1, part=plaque
*End Instance
**  
*Node
      1,   18.8728008,   381.127197,           0.
*Node
      2,   18.8728008,   18.8728008,           0.
*Node
      3,   381.127197,   18.8728008,           0.
*Node
      4,   381.127197,   381.127197,           0.
*Nset, nset=_PickedSet9, internal
 1,
*Nset, nset=_PickedSet11, internal
 2,
*Nset, nset=_PickedSet13, internal
 3,
*Nset, nset=_PickedSet15, internal
 4,
*Nset, nset=_PickedSet16, internal, generate
 1,  4,  1
*Elset, elset=__PickedSurf8_E1, internal, instance=plaque-1
  79,  82, 162
*Elset, elset=__PickedSurf8_E4, internal, instance=plaque-1
  80, 126
*Elset, elset=__PickedSurf8_E2, internal, instance=plaque-1
  84, 154, 173
*Surface, type=ELEMENT, name=_PickedSurf8, internal
__PickedSurf8_E1, E1
__PickedSurf8_E4, E4
__PickedSurf8_E2, E2
*Elset, elset=__PickedSurf10_E3, internal, instance=plaque-1
  3, 62, 67
*Elset, elset=__PickedSurf10_E2, internal, instance=plaque-1
  70, 166
*Elset, elset=__PickedSurf10_E4, internal, instance=plaque-1
 141, 142
*Elset, elset=__PickedSurf10_E1, internal, instance=plaque-1
 164,
*Surface, type=ELEMENT, name=_PickedSurf10, internal
__PickedSurf10_E3, E3
__PickedSurf10_E2, E2
__PickedSurf10_E4, E4
__PickedSurf10_E1, E1
*Elset, elset=__PickedSurf12_E2, internal, instance=plaque-1
  57, 159, 161, 172
*Elset, elset=__PickedSurf12_E3, internal, instance=plaque-1
 59, 74, 94
*Elset, elset=__PickedSurf12_E1, internal, instance=plaque-1
 71,
*Surface, type=ELEMENT, name=_PickedSurf12, internal
__PickedSurf12_E2, E2
__PickedSurf12_E3, E3
__PickedSurf12_E1, E1
*Elset, elset=__PickedSurf14_E3, internal, instance=plaque-1
  87,  89, 108
*Elset, elset=__PickedSurf14_E2, internal, instance=plaque-1
  91, 158, 167, 168, 171
*Surface, type=ELEMENT, name=_PickedSurf14, internal
__PickedSurf14_E3, E3
__PickedSurf14_E2, E2
** Constraint: Constraint-1
*Coupling, constraint name=Constraint-1, ref node=_PickedSet9, surface=_PickedSurf8
*Kinematic
** Constraint: Constraint-2
*Coupling, constraint name=Constraint-2, ref node=_PickedSet11, surface=_PickedSurf10
*Kinematic
** Constraint: Constraint-3
*Coupling, constraint name=Constraint-3, ref node=_PickedSet13, surface=_PickedSurf12
*Kinematic
** Constraint: Constraint-4
*Coupling, constraint name=Constraint-4, ref node=_PickedSet15, surface=_PickedSurf14
*Kinematic
*End Assembly
** 
** MATERIALS
** 
*Material, name=acier
*Density
 7.86e-09,
*Elastic
210000., 0.26
** ----------------------------------------------------------------
** 
** STEP: analyse_modale
** 
*Step, name=analyse_modale, nlgeom=NO, perturbation
*Frequency, eigensolver=Lanczos, sim, acoustic coupling=on, normalization=mass
, , 500., , , 
** 
** BOUNDARY CONDITIONS
** 
** Name: blocage Type: Symmetry/Antisymmetry/Encastre
*Boundary
_PickedSet16, ENCASTRE
** 
** OUTPUT REQUESTS
** 
*Restart, write, frequency=0
** 
** FIELD OUTPUT: F-Output-1
** 
*Output, field
*Node Output, variable=PRESELECT
** 
** HISTORY OUTPUT: H-Output-1
** 
*Output, history
*Energy Output, variable=ALL
*End Step
