*Heading
** Job name: vibration Model name: Model-1
** Generated by: Abaqus/CAE 2025
*Preprint, echo=NO, model=NO, history=NO, contact=NO
**
** PARTS
**
*Part, name=plaque
*Node
      1,   375.446045,   24.5539589,           0.
      2,   374.274475,   21.7255325,           0.
      3,   375.446045,   18.8971043,           0.
      4,   378.274475,   17.7255325,           0.
      5,   381.102905,   18.8971043,           0.
      6,   382.274475,   21.7255325,           0.
      7,   381.102905,   24.5539589,           0.
      8,   378.274475,   25.7255325,           0.
      9,   18.8971043,   24.5539589,           0.
     10,   17.7255325,   21.7255325,           0.
     11,   18.8971043,   18.8971043,           0.
     12,   21.7255325,   17.7255325,           0.
     13,   24.5539589,   18.8971043,           0.
     14,   25.7255325,   21.7255325,           0.
     15,   24.5539589,   24.5539589,           0.
     16,   21.7255325,   25.7255325,           0.
     17,   24.5539589,   375.446045,           0.
     18,   25.7255325,   378.274475,           0.
     19,   24.5539589,   381.102905,           0.
     20,   21.7255325,   382.274475,           0.
** ... 681 like lines cut
*Element, type=S3
 1,  11, 162,  12
 2, 136,  22, 128
 3,   5, 135,   6
 4,  27, 137,  28
 5, 660, 641, 195
 6,   8, 131,   1
 7, 129, 127,  18
 8, 159, 644, 176
 9, 131,   2,   1
10, 169,  27,  26
11, 118, 633, 126
12, 130, 151,  32
13, 619, 162, 635
14,   9, 163,  10
15,  20, 144,  21
16, 639, 169, 631
17, 362, 307, 306
18, 551, 501, 520
19, 547, 534, 512
20, 548, 526, 497
** ... 18 like lines cut
*Element, type=S4R
 39,   4,   3, 126, 140
 40, 126,   3,   2, 118
 41, 163,  94, 167, 618
 42, 115,  24, 116, 175
 43, 617,  16,  15, 134
 44, 617, 146, 157, 145
 45, 297, 267, 216, 232
 46, 202, 308, 303, 185
 47, 120, 134,  15,  14
 48,   8, 114, 171, 131
 49, 162,  11, 618, 167
 50, 225, 210, 291, 268
 51, 662, 204, 201, 650
 52, 127, 138,  19,  18
 53,  21, 144, 128,  22
 54, 128, 144, 649, 161
 55, 115, 147,  17,  24
 56, 116,  24,  23, 148
 57, 191, 661, 194, 182
 58, 124,  30, 122, 172
** ... 609 like lines cut
*Nset, nset=_PickedSet2, internal, generate
   1,  701,    1
*Elset, elset=_PickedSet2, internal, generate
   1,  667,    1
** Section: tole
*Shell Section, elset=_PickedSet2, material=acier
1., 5
*End Part
**  
**
** ASSEMBLY
**
*Assembly, name=Assembly
**  
*Instance, name=plaque-1, part=plaque
*End Instance
**  
*Node
      1,   21.7255325,   378.274475,           0.
*Node
      2,   21.7255325,   21.7255325,           0.
*Node
      3,   378.274475,   21.7255325,           0.
*Node
      4,   378.274475,   378.274475,           0.
*Nset, nset=_PickedSet9, internal
 1,
*Nset, nset=_PickedSet11, internal
 2,
*Nset, nset=_PickedSet13, internal
 3,
*Nset, nset=_PickedSet15, internal
 4,
*Nset, nset=_PickedSet16, internal, generate
 1,  4,  1
*Elset, elset=__PickedSurf8_E3, internal, instance=plaque-1
  15,  52,  55, 120
*Elset, elset=__PickedSurf8_E4, internal, instance=plaque-1
 53,
*Elset, elset=__PickedSurf8_E2, internal, instance=plaque-1
  56, 124, 136
*Surface, type=ELEMENT, name=_PickedSurf8, internal
__PickedSurf8_E3, E3
__PickedSurf8_E4, E4
__PickedSurf8_E2, E2
*Elset, elset=__PickedSurf10_E3, internal, instance=plaque-1
   1,  14,  47, 159
*Elset, elset=__PickedSurf10_E2, internal, instance=plaque-1
  43, 127, 151, 643
*Surface, type=ELEMENT, name=_PickedSurf10, internal
__PickedSurf10_E3, E3
__PickedSurf10_E2, E2
*Elset, elset=__PickedSurf12_E3, internal, instance=plaque-1
 3, 6
*Elset, elset=__PickedSurf12_E2, internal, instance=plaque-1
   9,  40, 121, 122, 133
*Elset, elset=__PickedSurf12_E1, internal, instance=plaque-1
 39,
*Surface, type=ELEMENT, name=_PickedSurf12, internal
__PickedSurf12_E3, E3
__PickedSurf12_E2, E2
__PickedSurf12_E1, E1
*Elset, elset=__PickedSurf14_E3, internal, instance=plaque-1
   4,  62, 106
*Elset, elset=__PickedSurf14_E2, internal, instance=plaque-1
  10,  60,  61, 130
*Elset, elset=__PickedSurf14_E4, internal, instance=plaque-1
 80,
*Surface, type=ELEMENT, name=_PickedSurf14, internal
__PickedSurf14_E3, E3
__PickedSurf14_E2, E2
__PickedSurf14_E4, E4
** Constraint: Constraint-1
*Coupling, constraint name=Constraint-1, ref node=_PickedSet9, surface=_PickedSurf8
*Kinematic
** Constraint: Constraint-2
*Coupling, constraint name=Constraint-2, ref node=_PickedSet11, surface=_PickedSurf10
*Kinematic
** Constraint: Constraint-3
*Coupling, constraint name=Constraint-3, ref node=_PickedSet13, surface=_PickedSurf12
*Kinematic
** Constraint: Constraint-4
*Coupling, constraint name=Constraint-4, ref node=_PickedSet15, surface=_PickedSurf14
*Kinematic
*End Assembly
** 
** MATERIALS
** 
*Material, name=acier
*Density
 7.86e-09,
*Elastic
210000., 0.26
** ----------------------------------------------------------------
** 
** STEP: analyse_modale
** 
*Step, name=analyse_modale, nlgeom=NO, perturbation
*Frequency, eigensolver=Lanczos, sim, acoustic coupling=on, normalization=mass
, , 500., , , 
** 
** BOUNDARY CONDITIONS
** 
** Name: blocage Type: Symmetry/Antisymmetry/Encastre
*Boundary
_PickedSet16, ENCASTRE
** 
** OUTPUT REQUESTS
** 
*Restart, write, frequency=0
** 
** FIELD OUTPUT: F-Output-1
** 
*Output, field
*Node Output, variable=PRESELECT
** 
** HISTORY OUTPUT: H-Output-1
** 
*Output, history
*Energy Output, variable=ALL
*End Step
