*Heading
** Job name: vibration Model name: Model-1
** Generated by: Abaqus/CAE 2025
*Preprint, echo=NO, model=NO, history=NO, contact=NO
**
** PARTS
**
*Part, name=plaque
*Node
      1,   363.732727,   36.2672844,           0.
      2,   362.561157,   33.4388542,           0.
      3,   363.732727,   30.6104279,           0.
      4,   366.561157,   29.4388561,           0.
      5,   369.389557,   30.6104279,           0.
      6,   370.561157,   33.4388542,           0.
      7,   369.389557,   36.2672844,           0.
      8,   366.561157,   37.4388542,           0.
      9,   30.6104279,   36.2672844,           0.
     10,   29.4388561,   33.4388542,           0.
     11,   30.6104279,   30.6104279,           0.
     12,   33.4388542,   29.4388561,           0.
     13,   36.2672844,   30.6104279,           0.
     14,   37.4388542,   33.4388542,           0.
     15,   36.2672844,   36.2672844,           0.
     16,   33.4388542,   37.4388542,           0.
     17,   36.2672844,   363.732727,           0.
     18,   37.4388542,   366.561157,           0.
     19,   36.2672844,   369.389557,           0.
     20,   33.4388542,   370.561157,           0.
** ... 852 like lines cut
*Element, type=S3
 1, 191, 170, 152
 2,  23, 772,  24
 3, 776, 156, 125
 4, 773, 162, 185
 5, 153, 193,  38
 6, 120,   2,   1
 7, 148, 145, 173
 8, 122,  22,  21
 9, 137, 117, 135
10, 199, 205, 255
11, 179, 136, 167
12, 222, 217, 209
13, 220, 166, 184
14, 173, 146, 148
15, 199, 137, 205
16, 240, 181, 798
17, 784, 220, 193
18, 295, 278, 292
19, 331, 330, 314
20, 444, 414, 421
** ... 28 like lines cut
*Element, type=S4R
 49, 138, 196, 174, 119
 50, 152, 170,   5, 128
 51, 768,   3,   2, 120
 52, 147, 198,  54, 197
 53, 198, 146, 173, 190
 54, 117,   9,  16, 135
 55,  23,  22, 129, 772
 56, 159,  15, 123, 176
 57, 157, 144, 171, 186
 58, 162, 115, 791, 222
 59, 259, 270, 287, 271
 60, 215, 207, 226, 237
 61,  13, 124, 770,  14
 62, 136, 767, 114, 133
 63, 770, 144, 157, 123
 64, 144, 770, 124, 147
 65, 146,  12,  11, 148
 66, 170, 138,   6,   5
 67, 166, 783, 768, 120
 68, 359, 835, 375, 401
** ... 775 like lines cut
*Nset, nset=_PickedSet2, internal, generate
   1,  872,    1
*Elset, elset=_PickedSet2, internal, generate
   1,  843,    1
** Section: tole
*Shell Section, elset=_PickedSet2, material=acier
1., 5
*End Part
**  
**
** ASSEMBLY
**
*Assembly, name=Assembly
**  
*Instance, name=plaque-1, part=plaque
*End Instance
**  
*Node
      1,   33.4388542,   366.561157,           0.
*Node
      2,   33.4388542,   33.4388542,           0.
*Node
      3,   366.561157,   33.4388542,           0.
*Node
      4,   366.561157,   366.561157,           0.
*Nset, nset=_PickedSet9, internal
 1,
*Nset, nset=_PickedSet11, internal
 2,
*Nset, nset=_PickedSet13, internal
 3,
*Nset, nset=_PickedSet15, internal
 4,
*Nset, nset=_PickedSet16, internal, generate
 1,  4,  1
*Elset, elset=__PickedSurf8_E3, internal, instance=plaque-1
   2,  72, 112
*Elset, elset=__PickedSurf8_E2, internal, instance=plaque-1
   8, 143
*Elset, elset=__PickedSurf8_E1, internal, instance=plaque-1
 55,
*Elset, elset=__PickedSurf8_E4, internal, instance=plaque-1
  77, 109
*Surface, type=ELEMENT, name=_PickedSurf8, internal
__PickedSurf8_E3, E3
__PickedSurf8_E2, E2
__PickedSurf8_E4, E4
__PickedSurf8_E1, E1
*Elset, elset=__PickedSurf10_E2, internal, instance=plaque-1
  54,  65, 125, 139, 146, 147
*Elset, elset=__PickedSurf10_E4, internal, instance=plaque-1
  61, 145
*Surface, type=ELEMENT, name=_PickedSurf10, internal
__PickedSurf10_E2, E2
__PickedSurf10_E4, E4
*Elset, elset=__PickedSurf12_E2, internal, instance=plaque-1
  6, 51, 84
*Elset, elset=__PickedSurf12_E3, internal, instance=plaque-1
  66,  79, 135
*Elset, elset=__PickedSurf12_E1, internal, instance=plaque-1
 87,
*Elset, elset=__PickedSurf12_E4, internal, instance=plaque-1
 177,
*Surface, type=ELEMENT, name=_PickedSurf12, internal
__PickedSurf12_E2, E2
__PickedSurf12_E3, E3
__PickedSurf12_E4, E4
__PickedSurf12_E1, E1
*Elset, elset=__PickedSurf14_E2, internal, instance=plaque-1
  71,  82, 150, 151, 152
*Elset, elset=__PickedSurf14_E3, internal, instance=plaque-1
 78,
*Elset, elset=__PickedSurf14_E4, internal, instance=plaque-1
 80,
*Elset, elset=__PickedSurf14_E1, internal, instance=plaque-1
 134,
*Surface, type=ELEMENT, name=_PickedSurf14, internal
__PickedSurf14_E2, E2
__PickedSurf14_E3, E3
__PickedSurf14_E4, E4
__PickedSurf14_E1, E1
** Constraint: Constraint-1
*Coupling, constraint name=Constraint-1, ref node=_PickedSet9, surface=_PickedSurf8
*Kinematic
** Constraint: Constraint-2
*Coupling, constraint name=Constraint-2, ref node=_PickedSet11, surface=_PickedSurf10
*Kinematic
** Constraint: Constraint-3
*Coupling, constraint name=Constraint-3, ref node=_PickedSet13, surface=_PickedSurf12
*Kinematic
** Constraint: Constraint-4
*Coupling, constraint name=Constraint-4, ref node=_PickedSet15, surface=_PickedSurf14
*Kinematic
*End Assembly
** 
** MATERIALS
** 
*Material, name=acier
*Density
 7.86e-09,
*Elastic
210000., 0.26
** ----------------------------------------------------------------
** 
** STEP: analyse_modale
** 
*Step, name=analyse_modale, nlgeom=NO, perturbation
*Frequency, eigensolver=Lanczos, sim, acoustic coupling=on, normalization=mass
, , 500., , , 
** 
** BOUNDARY CONDITIONS
** 
** Name: blocage Type: Symmetry/Antisymmetry/Encastre
*Boundary
_PickedSet16, ENCASTRE
** 
** OUTPUT REQUESTS
** 
*Restart, write, frequency=0
** 
** FIELD OUTPUT: F-Output-1
** 
*Output, field
*Node Output, variable=PRESELECT
** 
** HISTORY OUTPUT: H-Output-1
** 
*Output, history
*Energy Output, variable=ALL
*End Step
