*Heading
** Job name: vibration Model name: Model-1
** Generated by: Abaqus/CAE 2025
*Preprint, echo=NO, model=NO, history=NO, contact=NO
**
** PARTS
**
*Part, name=plaque
*Node
      1,   372.158264,   27.8417244,           0.
      2,   370.986694,   25.0132961,           0.
      3,   372.158264,   22.1848698,           0.
      4,   374.986694,   21.0132961,           0.
      5,   377.815125,   22.1848698,           0.
      6,   378.986694,   25.0132961,           0.
      7,   377.815125,   27.8417244,           0.
      8,   374.986694,   29.0132961,           0.
      9,   22.1848698,   27.8417244,           0.
     10,   21.0132961,   25.0132961,           0.
     11,   22.1848698,   22.1848698,           0.
     12,   25.0132961,   21.0132961,           0.
     13,   27.8417244,   22.1848698,           0.
     14,   29.0132961,   25.0132961,           0.
     15,   27.8417244,   27.8417244,           0.
     16,   25.0132961,   29.0132961,           0.
     17,   27.8417244,   372.158264,           0.
     18,   29.0132961,   374.986694,           0.
     19,   27.8417244,   377.815125,           0.
     20,   25.0132961,   378.986694,           0.
** ... 706 like lines cut
*Element, type=S3
 1, 646, 116, 146
 2,   6, 135,   7
 3, 666, 114, 140
 4, 190, 162, 185
 5, 135,   6, 635
 6, 673, 672, 112
 7,   8, 634,   1
 8,   2, 132, 113
 9,   9, 118,  10
10, 163, 665, 131
11, 124,  30,  29
12, 148, 124, 137
13, 135, 168, 636
14, 666, 149, 159
15, 145, 664, 144
16, 145,  12, 119
17, 147, 176, 156
18, 125, 177, 115
19, 149, 183, 159
20, 165, 139, 151
** ... 26 like lines cut
*Element, type=S4R
 47, 125, 115,   5,   4
 48, 648, 177, 125, 126
 49,   3,   2, 113, 126
 50, 143, 179, 647, 119
 51,  11, 143, 119,  12
 52,   9,  16, 136, 118
 53, 136,  16, 129, 171
 54, 138, 156, 662, 133
 55, 150,  15,  14, 117
 56, 155, 174, 150, 117
 57, 229,  48,  47, 270
 58, 276, 679, 676, 684
 59,  13, 144, 120,  14
 60,  13,  12, 145, 144
 61, 635,  74,  73, 168
 62, 271, 289, 341, 290
 63, 200, 678, 193, 227
 64, 124,  29,  28, 137
 65, 638,  19,  18, 158
 66, 159, 644, 114, 666
** ... 630 like lines cut
*Nset, nset=_PickedSet2, internal, generate
   1,  726,    1
*Elset, elset=_PickedSet2, internal, generate
   1,  696,    1
** Section: tole
*Shell Section, elset=_PickedSet2, material=acier
1., 5
*End Part
**  
**
** ASSEMBLY
**
*Assembly, name=Assembly
**  
*Instance, name=plaque-1, part=plaque
*End Instance
**  
*Node
      1,   25.0132961,   374.986694,           0.
*Node
      2,   25.0132961,   25.0132961,           0.
*Node
      3,   374.986694,   25.0132961,           0.
*Node
      4,   374.986694,   374.986694,           0.
*Nset, nset=_PickedSet9, internal
 1,
*Nset, nset=_PickedSet11, internal
 2,
*Nset, nset=_PickedSet13, internal
 3,
*Nset, nset=_PickedSet15, internal
 4,
*Nset, nset=_PickedSet16, internal, generate
 1,  4,  1
*Elset, elset=__PickedSurf8_E2, internal, instance=plaque-1
  65, 144
*Elset, elset=__PickedSurf8_E4, internal, instance=plaque-1
 100, 103, 128, 145
*Elset, elset=__PickedSurf8_E3, internal, instance=plaque-1
 148, 164
*Surface, type=ELEMENT, name=_PickedSurf8, internal
__PickedSurf8_E2, E2
__PickedSurf8_E4, E4
__PickedSurf8_E3, E3
*Elset, elset=__PickedSurf10_E3, internal, instance=plaque-1
 9,
*Elset, elset=__PickedSurf10_E4, internal, instance=plaque-1
  51,  59, 118
*Elset, elset=__PickedSurf10_E1, internal, instance=plaque-1
  52,  60, 136
*Elset, elset=__PickedSurf10_E2, internal, instance=plaque-1
 55,
*Surface, type=ELEMENT, name=_PickedSurf10, internal
__PickedSurf10_E3, E3
__PickedSurf10_E4, E4
__PickedSurf10_E2, E2
__PickedSurf10_E1, E1
*Elset, elset=__PickedSurf12_E3, internal, instance=plaque-1
   2,   7,  47, 132
*Elset, elset=__PickedSurf12_E1, internal, instance=plaque-1
  49, 134, 135
*Elset, elset=__PickedSurf12_E2, internal, instance=plaque-1
 77,
*Surface, type=ELEMENT, name=_PickedSurf12, internal
__PickedSurf12_E3, E3
__PickedSurf12_E1, E1
__PickedSurf12_E2, E2
*Elset, elset=__PickedSurf14_E2, internal, instance=plaque-1
  11,  64, 670, 673
*Elset, elset=__PickedSurf14_E3, internal, instance=plaque-1
 74,
*Elset, elset=__PickedSurf14_E4, internal, instance=plaque-1
 89,
*Elset, elset=__PickedSurf14_E1, internal, instance=plaque-1
 112, 142
*Surface, type=ELEMENT, name=_PickedSurf14, internal
__PickedSurf14_E2, E2
__PickedSurf14_E3, E3
__PickedSurf14_E4, E4
__PickedSurf14_E1, E1
** Constraint: Constraint-1
*Coupling, constraint name=Constraint-1, ref node=_PickedSet9, surface=_PickedSurf8
*Kinematic
** Constraint: Constraint-2
*Coupling, constraint name=Constraint-2, ref node=_PickedSet11, surface=_PickedSurf10
*Kinematic
** Constraint: Constraint-3
*Coupling, constraint name=Constraint-3, ref node=_PickedSet13, surface=_PickedSurf12
*Kinematic
** Constraint: Constraint-4
*Coupling, constraint name=Constraint-4, ref node=_PickedSet15, surface=_PickedSurf14
*Kinematic
*End Assembly
** 
** MATERIALS
** 
*Material, name=acier
*Density
 7.86e-09,
*Elastic
210000., 0.26
** ----------------------------------------------------------------
** 
** STEP: analyse_modale
** 
*Step, name=analyse_modale, nlgeom=NO, perturbation
*Frequency, eigensolver=Lanczos, sim, acoustic coupling=on, normalization=mass
, , 500., , , 
** 
** BOUNDARY CONDITIONS
** 
** Name: blocage Type: Symmetry/Antisymmetry/Encastre
*Boundary
_PickedSet16, ENCASTRE
** 
** OUTPUT REQUESTS
** 
*Restart, write, frequency=0
** 
** FIELD OUTPUT: F-Output-1
** 
*Output, field
*Node Output, variable=PRESELECT
** 
** HISTORY OUTPUT: H-Output-1
** 
*Output, history
*Energy Output, variable=ALL
*End Step
