*Heading
** Job name: vibration Model name: Model-1
** Generated by: Abaqus/CAE 2025
*Preprint, echo=NO, model=NO, history=NO, contact=NO
**
** PARTS
**
*Part, name=plaque
*Node
      1,    391.38147,   8.61851978,           0.
      2,     390.2099,   5.79009247,           0.
      3,     394.2099,   1.79009247,           0.
      4,    397.03833,   2.96166539,           0.
      5,     398.2099,   5.79009247,           0.
      6,    397.03833,   8.61851978,           0.
      7,     394.2099,   9.79009247,           0.
      8,   1.79009247,   5.79009247,           0.
      9,   2.96166539,   2.96166539,           0.
     10,   5.79009247,   1.79009247,           0.
     11,   8.61851978,   2.96166539,           0.
     12,   9.79009247,   5.79009247,           0.
     13,   8.61851978,   8.61851978,           0.
     14,   5.79009247,   9.79009247,           0.
     15,   8.61851978,    391.38147,           0.
     16,   9.79009247,     394.2099,           0.
     17,   5.79009247,     398.2099,           0.
     18,   2.96166539,    397.03833,           0.
     19,   1.79009247,     394.2099,           0.
     20,   2.96166539,    391.38147,           0.
** ... 603 like lines cut
*Element, type=S3
 1, 556,  74, 557
 2, 581,   5, 555
 3, 554, 553,  29
 4,  30,   8, 559
 5,  94, 559, 577
 6, 564,  20,  19
 7, 561, 560,  75
 8, 562, 561,  32
 9, 584,  19, 563
10, 565, 564, 112
11, 570,  93, 119
12, 120,  26, 119
13, 569,  93, 570
14,  31,  23,  22
15,  31, 567,  56
16, 144, 145, 137
17, 585, 149, 140
18,  12, 118, 117
19,  93, 120, 119
20, 145, 144, 148
** ... 46 like lines cut
*Element, type=S4R
 67,  33, 552, 553,   3
 68, 596,  10,   9,  30
 69, 586, 124, 565, 112
 70, 123,  14,  13, 133
 71, 145, 148, 591, 590
 72, 196, 195, 238, 215
 73, 150,  38, 573, 574
 74, 118,  55, 137, 117
 75,   7, 126, 113,   1
 76,  37, 552, 116, 130
 77,  56, 566, 127, 568
 78,   2,   1, 115, 116
 79, 173, 172, 216, 218
 80, 151, 575, 149, 213
 81, 120,  93, 131, 585
 82,  75, 560, 121, 132
 83,  16,  15, 122, 121
 84,  21, 124, 125,  15
 85, 572, 571, 138, 147
 86, 114,  28,  27, 128
** ... 517 like lines cut
*Nset, nset=_PickedSet2, internal, generate
   1,  623,    1
*Elset, elset=_PickedSet2, internal, generate
   1,  603,    1
** Section: tole
*Shell Section, elset=_PickedSet2, material=acier
1., 5
*End Part
**  
**
** ASSEMBLY
**
*Assembly, name=Assembly
**  
*Instance, name=plaque-1, part=plaque
*End Instance
**  
*Node
      1,   5.79009247,     394.2099,           0.
*Node
      2,   5.79009247,   5.79009247,           0.
*Node
      3,     394.2099,   5.79009247,           0.
*Node
      4,     394.2099,     394.2099,           0.
*Nset, nset=_PickedSet9, internal
 1,
*Nset, nset=_PickedSet11, internal
 2,
*Nset, nset=_PickedSet13, internal
 3,
*Nset, nset=_PickedSet15, internal
 4,
*Nset, nset=_PickedSet16, internal, generate
 1,  4,  1
*Elset, elset=__PickedSurf8_E2, internal, instance=plaque-1
   6,  45,  47, 120
*Elset, elset=__PickedSurf8_E1, internal, instance=plaque-1
  83, 166
*Elset, elset=__PickedSurf8_E4, internal, instance=plaque-1
 84,
*Elset, elset=__PickedSurf8_E3, internal, instance=plaque-1
 163,
*Surface, type=ELEMENT, name=_PickedSurf8, internal
__PickedSurf8_E2, E2
__PickedSurf8_E1, E1
__PickedSurf8_E4, E4
__PickedSurf8_E3, E3
*Elset, elset=__PickedSurf10_E3, internal, instance=plaque-1
  39, 584
*Elset, elset=__PickedSurf10_E2, internal, instance=plaque-1
 68, 70
*Elset, elset=__PickedSurf10_E1, internal, instance=plaque-1
 158, 160, 586
*Elset, elset=__PickedSurf10_E4, internal, instance=plaque-1
 583,
*Surface, type=ELEMENT, name=_PickedSurf10, internal
__PickedSurf10_E3, E3
__PickedSurf10_E2, E2
__PickedSurf10_E4, E4
__PickedSurf10_E1, E1
*Elset, elset=__PickedSurf12_E2, internal, instance=plaque-1, generate
 32,  36,   2
*Elset, elset=__PickedSurf12_E4, internal, instance=plaque-1
 67, 75
*Elset, elset=__PickedSurf12_E1, internal, instance=plaque-1
  78, 167
*Elset, elset=__PickedSurf12_E3, internal, instance=plaque-1
 157,
*Surface, type=ELEMENT, name=_PickedSurf12, internal
__PickedSurf12_E2, E2
__PickedSurf12_E4, E4
__PickedSurf12_E1, E1
__PickedSurf12_E3, E3
*Elset, elset=__PickedSurf14_E2, internal, instance=plaque-1
  14,  52,  86, 104
*Elset, elset=__PickedSurf14_E3, internal, instance=plaque-1
 155,
*Elset, elset=__PickedSurf14_E1, internal, instance=plaque-1
 161, 588
*Elset, elset=__PickedSurf14_E4, internal, instance=plaque-1
 168,
*Surface, type=ELEMENT, name=_PickedSurf14, internal
__PickedSurf14_E2, E2
__PickedSurf14_E3, E3
__PickedSurf14_E4, E4
__PickedSurf14_E1, E1
** Constraint: Constraint-1
*Coupling, constraint name=Constraint-1, ref node=_PickedSet9, surface=_PickedSurf8
*Kinematic
** Constraint: Constraint-2
*Coupling, constraint name=Constraint-2, ref node=_PickedSet11, surface=_PickedSurf10
*Kinematic
** Constraint: Constraint-3
*Coupling, constraint name=Constraint-3, ref node=_PickedSet13, surface=_PickedSurf12
*Kinematic
** Constraint: Constraint-4
*Coupling, constraint name=Constraint-4, ref node=_PickedSet15, surface=_PickedSurf14
*Kinematic
*End Assembly
** 
** MATERIALS
** 
*Material, name=acier
*Density
 7.86e-09,
*Elastic
210000., 0.26
** ----------------------------------------------------------------
** 
** STEP: analyse_modale
** 
*Step, name=analyse_modale, nlgeom=NO, perturbation
*Frequency, eigensolver=Lanczos, sim, acoustic coupling=on, normalization=mass
, , 500., , , 
** 
** BOUNDARY CONDITIONS
** 
** Name: blocage Type: Symmetry/Antisymmetry/Encastre
*Boundary
_PickedSet16, ENCASTRE
** 
** OUTPUT REQUESTS
** 
*Restart, write, frequency=0
** 
** FIELD OUTPUT: F-Output-1
** 
*Output, field
*Node Output, variable=PRESELECT
** 
** HISTORY OUTPUT: H-Output-1
** 
*Output, history
*Energy Output, variable=ALL
*End Step
