*Heading
** Job name: vibration Model name: Model-1
** Generated by: Abaqus/CAE 2025
*Preprint, echo=NO, model=NO, history=NO, contact=NO
**
** PARTS
**
*Part, name=plaque
*Node
      1,   352.899902,   47.1000862,           0.
      2,   351.728333,   44.2716599,           0.
      3,   352.899902,   41.4432335,           0.
      4,   355.728333,   40.2716599,           0.
      5,   358.556763,   41.4432335,           0.
      6,   359.728333,   44.2716599,           0.
      7,   358.556763,   47.1000862,           0.
      8,   355.728333,   48.2716599,           0.
      9,   41.4432335,   47.1000862,           0.
     10,   40.2716599,   44.2716599,           0.
     11,   41.4432335,   41.4432335,           0.
     12,   44.2716599,   40.2716599,           0.
     13,   47.1000862,   41.4432335,           0.
     14,   48.2716599,   44.2716599,           0.
     15,   47.1000862,   47.1000862,           0.
     16,   44.2716599,   48.2716599,           0.
     17,   47.1000862,   352.899902,           0.
     18,   48.2716599,   355.728333,           0.
     19,   47.1000862,   358.556763,           0.
     20,   44.2716599,   359.728333,           0.
** ... 1159 like lines cut
*Element, type=S3
 1,  151, 1009, 1010
 2, 1018,  135, 1020
 3, 1024,  147,  129
 4,  189,  161,  123
 5,  255, 1062,  205
 6, 1081,  164,  173
 7,  270,  229,  250
 8,  122, 1047, 1011
 9, 1075,  168,  197
10,  115,  201, 1006
11,  188,  210, 1045
12,  348,  338,  324
13,  269,  236,  252
14,  272,  254,  249
15,  253,  203,  181
16,  499, 1130,  483
17,  341,  321,  332
18,  345,  589,  323
19,  375,  339,  349
20,  360,  359,  351
** ... 34 like lines cut
*Element, type=S4R
  55, 1005,  181,  163,  139
  56, 1057,  155, 1044,  873
  57,  130,  155,    5,    4
  58,  116,  159,    3,    2
  59,  121,   11,  122, 1011
  60, 1056,  259, 1029,  216
  61, 1008,    9,   16,  167
  62, 1041,  173,  164, 1040
  63,   23, 1013,  137,   24
  64,  123,  161,   15,   14
  65,  224, 1082,  239,  264
  66, 1041,  143, 1042,  173
  67,  189,  236,  225,  166
  68,  223,  198,  238,  257
  69,  124,   14,   13, 1009
  70,  139,    8,    7, 1005
  71,  124,  152,  123,   14
  72,  117,    6,  115, 1006
  73, 1007,    1,  113,  172
  74, 1021,   31,   30,  125
** ... 1079 like lines cut
*Nset, nset=_PickedSet2, internal, generate
    1,  1179,     1
*Elset, elset=_PickedSet2, internal, generate
    1,  1153,     1
** Section: tole
*Shell Section, elset=_PickedSet2, material=acier
1., 5
*End Part
**  
**
** ASSEMBLY
**
*Assembly, name=Assembly
**  
*Instance, name=plaque-1, part=plaque
*End Instance
**  
*Node
      1,   44.2716599,   355.728333,           0.
*Node
      2,   44.2716599,   44.2716599,           0.
*Node
      3,   355.728333,   44.2716599,           0.
*Node
      4,   355.728333,   355.728333,           0.
*Nset, nset=_PickedSet9, internal
 1,
*Nset, nset=_PickedSet11, internal
 2,
*Nset, nset=_PickedSet13, internal
 3,
*Nset, nset=_PickedSet15, internal
 4,
*Nset, nset=_PickedSet16, internal, generate
 1,  4,  1
*Elset, elset=__PickedSurf8_E4, internal, instance=plaque-1
  63,  78,  80,  82, 169
*Elset, elset=__PickedSurf8_E1, internal, instance=plaque-1
 154, 171
*Elset, elset=__PickedSurf8_E2, internal, instance=plaque-1
 155,
*Surface, type=ELEMENT, name=_PickedSurf8, internal
__PickedSurf8_E4, E4
__PickedSurf8_E1, E1
__PickedSurf8_E2, E2
*Elset, elset=__PickedSurf10_E2, internal, instance=plaque-1
  61,  69, 105, 149, 158
*Elset, elset=__PickedSurf10_E3, internal, instance=plaque-1
  64, 133
*Elset, elset=__PickedSurf10_E4, internal, instance=plaque-1
 157,
*Surface, type=ELEMENT, name=_PickedSurf10, internal
__PickedSurf10_E2, E2
__PickedSurf10_E3, E3
__PickedSurf10_E4, E4
*Elset, elset=__PickedSurf12_E3, internal, instance=plaque-1
 57, 58
*Elset, elset=__PickedSurf12_E2, internal, instance=plaque-1
  70,  90, 147, 150, 152
*Elset, elset=__PickedSurf12_E4, internal, instance=plaque-1
 93,
*Surface, type=ELEMENT, name=_PickedSurf12, internal
__PickedSurf12_E3, E3
__PickedSurf12_E2, E2
__PickedSurf12_E4, E4
*Elset, elset=__PickedSurf14_E2, internal, instance=plaque-1
  74,  89, 162, 164, 165, 167
*Elset, elset=__PickedSurf14_E3, internal, instance=plaque-1
 76, 87
*Surface, type=ELEMENT, name=_PickedSurf14, internal
__PickedSurf14_E2, E2
__PickedSurf14_E3, E3
** Constraint: Constraint-1
*Coupling, constraint name=Constraint-1, ref node=_PickedSet9, surface=_PickedSurf8
*Kinematic
** Constraint: Constraint-2
*Coupling, constraint name=Constraint-2, ref node=_PickedSet11, surface=_PickedSurf10
*Kinematic
** Constraint: Constraint-3
*Coupling, constraint name=Constraint-3, ref node=_PickedSet13, surface=_PickedSurf12
*Kinematic
** Constraint: Constraint-4
*Coupling, constraint name=Constraint-4, ref node=_PickedSet15, surface=_PickedSurf14
*Kinematic
*End Assembly
** 
** MATERIALS
** 
*Material, name=acier
*Density
 7.86e-09,
*Elastic
210000., 0.26
** ----------------------------------------------------------------
** 
** STEP: analyse_modale
** 
*Step, name=analyse_modale, nlgeom=NO, perturbation
*Frequency, eigensolver=Lanczos, sim, acoustic coupling=on, normalization=mass
, , 500., , , 
** 
** BOUNDARY CONDITIONS
** 
** Name: blocage Type: Symmetry/Antisymmetry/Encastre
*Boundary
_PickedSet16, ENCASTRE
** 
** OUTPUT REQUESTS
** 
*Restart, write, frequency=0
** 
** FIELD OUTPUT: F-Output-1
** 
*Output, field
*Node Output, variable=PRESELECT
** 
** HISTORY OUTPUT: H-Output-1
** 
*Output, history
*Energy Output, variable=ALL
*End Step
