*Heading
** Job name: vibration Model name: Model-1
** Generated by: Abaqus/CAE 2025
*Preprint, echo=NO, model=NO, history=NO, contact=NO
**
** PARTS
**
*Part, name=plaque
*Node
      1,   347.892365,   52.1076241,           0.
      2,   346.720795,   49.2791939,           0.
      3,   347.892365,   46.4507675,           0.
      4,   350.720795,   45.2791939,           0.
      5,   353.549225,   46.4507675,           0.
      6,   354.720795,   49.2791939,           0.
      7,   353.549225,   52.1076241,           0.
      8,   350.720795,   53.2791939,           0.
      9,   46.4507675,   52.1076241,           0.
     10,   45.2791939,   49.2791939,           0.
     11,   46.4507675,   46.4507675,           0.
     12,   49.2791939,   45.2791939,           0.
     13,   52.1076241,   46.4507675,           0.
     14,   53.2791939,   49.2791939,           0.
     15,   52.1076241,   52.1076241,           0.
     16,   49.2791939,   53.2791939,           0.
     17,   52.1076241,   347.892365,           0.
     18,   53.2791939,   350.720795,           0.
     19,   52.1076241,   353.549225,           0.
     20,   49.2791939,   354.720795,           0.
** ... 1301 like lines cut
*Element, type=S3
 1,  134,  116,    5
 2,  153, 1150,  135
 3,  121, 1179, 1151
 4,  237,  119,  168
 5,  182,  115,  148
 6,  193,  133,  169
 7,  137,  207,  152
 8, 1154,  165,  216
 9,  179,  239,  155
10,  240,  154,  193
11,  298,  213,  268
12,  283,  304,  234
13,  314,  256,  286
14,  279,  224,  251
15,  185, 1060,  215
16,  281, 1205,  225
17,  382,  331,  369
18, 1242,  584,  416
19,  342, 1071,  276
20,  352,   91,   90
** ... 28 like lines cut
*Element, type=S4R
  49,  184, 1153,  155,  239
  50,  116, 1154,  179,  155
  51,  135,    3,  121, 1151
  52, 1149,  187,  118,    1
  53,  162,  230,  197, 1157
  54,  122,   11,  123,  164
  55,  192,  122,  164,  217
  56,  115, 1155,    9,   16
  57,   23, 1160,  140,   24
  58,   15, 1158,  139,   16
  59, 1171,  231,  173,  125
  60,  211,  257,  278,  266
  61,  307,  325,  349,  358
  62,  142,    8,    7, 1152
  63,  126,   14,   13,  163
  64,  255,  249,  303, 1196
  65,  160, 1171,  125,  126
  66,   14,  126,  125,   15
  67, 1157,   12,   11,  122
  68, 1153,    6,    5,  116
** ... 1224 like lines cut
*Nset, nset=_PickedSet2, internal, generate
    1,  1321,     1
*Elset, elset=_PickedSet2, internal, generate
    1,  1292,     1
** Section: tole
*Shell Section, elset=_PickedSet2, material=acier
1., 5
*End Part
**  
**
** ASSEMBLY
**
*Assembly, name=Assembly
**  
*Instance, name=plaque-1, part=plaque
*End Instance
**  
*Node
      1,   49.2791939,   350.720795,           0.
*Node
      2,   49.2791939,   49.2791939,           0.
*Node
      3,   350.720795,   49.2791939,           0.
*Node
      4,   350.720795,   350.720795,           0.
*Nset, nset=_PickedSet9, internal
 1,
*Nset, nset=_PickedSet11, internal
 2,
*Nset, nset=_PickedSet13, internal
 3,
*Nset, nset=_PickedSet15, internal
 4,
*Nset, nset=_PickedSet16, internal, generate
 1,  4,  1
*Elset, elset=__PickedSurf8_E4, internal, instance=plaque-1
  57,  78, 152, 169
*Elset, elset=__PickedSurf8_E2, internal, instance=plaque-1
  76, 151, 172
*Elset, elset=__PickedSurf8_E1, internal, instance=plaque-1
 79,
*Surface, type=ELEMENT, name=_PickedSurf8, internal
__PickedSurf8_E4, E4
__PickedSurf8_E2, E2
__PickedSurf8_E1, E1
*Elset, elset=__PickedSurf10_E3, internal, instance=plaque-1
  56, 101, 135
*Elset, elset=__PickedSurf10_E4, internal, instance=plaque-1
 58, 66
*Elset, elset=__PickedSurf10_E2, internal, instance=plaque-1
  63,  67, 154
*Surface, type=ELEMENT, name=_PickedSurf10, internal
__PickedSurf10_E3, E3
__PickedSurf10_E4, E4
__PickedSurf10_E2, E2
*Elset, elset=__PickedSurf12_E2, internal, instance=plaque-1
  62,  68, 147, 153
*Elset, elset=__PickedSurf12_E3, internal, instance=plaque-1
 69, 93
*Elset, elset=__PickedSurf12_E4, internal, instance=plaque-1
 149,
*Elset, elset=__PickedSurf12_E1, internal, instance=plaque-1
 166,
*Surface, type=ELEMENT, name=_PickedSurf12, internal
__PickedSurf12_E2, E2
__PickedSurf12_E3, E3
__PickedSurf12_E4, E4
__PickedSurf12_E1, E1
*Elset, elset=__PickedSurf14_E2, internal, instance=plaque-1
  71,  84,  87,  89, 158, 163, 164
*Elset, elset=__PickedSurf14_E1, internal, instance=plaque-1
 160,
*Surface, type=ELEMENT, name=_PickedSurf14, internal
__PickedSurf14_E2, E2
__PickedSurf14_E1, E1
** Constraint: Constraint-1
*Coupling, constraint name=Constraint-1, ref node=_PickedSet9, surface=_PickedSurf8
*Kinematic
** Constraint: Constraint-2
*Coupling, constraint name=Constraint-2, ref node=_PickedSet11, surface=_PickedSurf10
*Kinematic
** Constraint: Constraint-3
*Coupling, constraint name=Constraint-3, ref node=_PickedSet13, surface=_PickedSurf12
*Kinematic
** Constraint: Constraint-4
*Coupling, constraint name=Constraint-4, ref node=_PickedSet15, surface=_PickedSurf14
*Kinematic
*End Assembly
** 
** MATERIALS
** 
*Material, name=acier
*Density
 7.86e-09,
*Elastic
210000., 0.26
** ----------------------------------------------------------------
** 
** STEP: analyse_modale
** 
*Step, name=analyse_modale, nlgeom=NO, perturbation
*Frequency, eigensolver=Lanczos, sim, acoustic coupling=on, normalization=mass
, , 500., , , 
** 
** BOUNDARY CONDITIONS
** 
** Name: blocage Type: Symmetry/Antisymmetry/Encastre
*Boundary
_PickedSet16, ENCASTRE
** 
** OUTPUT REQUESTS
** 
*Restart, write, frequency=0
** 
** FIELD OUTPUT: F-Output-1
** 
*Output, field
*Node Output, variable=PRESELECT
** 
** HISTORY OUTPUT: H-Output-1
** 
*Output, history
*Energy Output, variable=ALL
*End Step
