*Heading
** Job name: vibration Model name: Model-1
** Generated by: Abaqus/CAE 2025
*Preprint, echo=NO, model=NO, history=NO, contact=NO
**
** PARTS
**
*Part, name=plaque
*Node
      1,   366.101471,   33.8985329,           0.
      2,   364.929901,   31.0701065,           0.
      3,   366.101471,   28.2416782,           0.
      4,   368.929901,   27.0701065,           0.
      5,   371.758331,   28.2416782,           0.
      6,   372.929901,   31.0701065,           0.
      7,   371.758331,   33.8985329,           0.
      8,   368.929901,   35.0701065,           0.
      9,   28.2416782,   33.8985329,           0.
     10,   27.0701065,   31.0701065,           0.
     11,   28.2416782,   28.2416782,           0.
     12,   31.0701065,   27.0701065,           0.
     13,   33.8985329,   28.2416782,           0.
     14,   35.0701065,   31.0701065,           0.
     15,   33.8985329,   33.8985329,           0.
     16,   31.0701065,   35.0701065,           0.
     17,   33.8985329,   366.101471,           0.
     18,   35.0701065,   368.929901,           0.
     19,   33.8985329,   371.758331,           0.
     20,   31.0701065,   372.929901,           0.
** ... 727 like lines cut
*Element, type=S3
 1,   4, 148,   5
 2, 135,   8, 113
 3, 126, 150,  29
 4, 143,  19, 130
 5,  21, 682, 152
 6, 691, 181, 140
 7, 685,  38,  37
 8, 142, 148, 175
 9, 178, 142, 175
10, 173, 146, 120
11, 173, 120, 714
12, 141, 175, 148
13, 211, 139, 174
14, 177,  55,  54
15, 178, 136, 142
16, 183, 112, 111
17, 209, 205, 184
18, 179, 112, 183
19, 296, 264, 209
20, 231, 223, 217
** ... 22 like lines cut
*Element, type=S4R
 43, 178, 175,  74,  73
 44, 117, 149,   3,   2
 45, 167, 118, 159, 206
 46, 121,  10,   9, 153
 47, 133,  16, 116, 154
 48, 114,  24, 115, 163
 49, 116,  16,  15, 679
 50,  96, 686, 241,  97
 51, 710, 719, 239, 187
 52, 282, 210, 230, 284
 53, 679, 122, 706, 138
 54, 122,  14, 123, 145
 55, 120, 146,  12,  11
 56,   5, 148, 142,   6
 57, 117,   2, 118, 167
 58, 483, 408, 484, 490
 59, 695, 227, 199, 683
 60,  30, 125, 158,  31
 61, 152, 682, 179, 183
 62,  20,  19, 143, 119
** ... 653 like lines cut
*Nset, nset=_PickedSet2, internal, generate
   1,  747,    1
*Elset, elset=_PickedSet2, internal, generate
   1,  715,    1
** Section: tole
*Shell Section, elset=_PickedSet2, material=acier
1., 5
*End Part
**  
**
** ASSEMBLY
**
*Assembly, name=Assembly
**  
*Instance, name=plaque-1, part=plaque
*End Instance
**  
*Node
      1,   31.0701065,   368.929901,           0.
*Node
      2,   31.0701065,   31.0701065,           0.
*Node
      3,   368.929901,   31.0701065,           0.
*Node
      4,   368.929901,   368.929901,           0.
*Nset, nset=_PickedSet9, internal
 1,
*Nset, nset=_PickedSet11, internal
 2,
*Nset, nset=_PickedSet13, internal
 3,
*Nset, nset=_PickedSet15, internal
 4,
*Nset, nset=_PickedSet16, internal, generate
 1,  4,  1
*Elset, elset=__PickedSurf8_E1, internal, instance=plaque-1
  62,  64, 149
*Elset, elset=__PickedSurf8_E3, internal, instance=plaque-1
  65, 103
*Elset, elset=__PickedSurf8_E2, internal, instance=plaque-1
 66,
*Elset, elset=__PickedSurf8_E4, internal, instance=plaque-1
 104, 131
*Surface, type=ELEMENT, name=_PickedSurf8, internal
__PickedSurf8_E1, E1
__PickedSurf8_E3, E3
__PickedSurf8_E2, E2
__PickedSurf8_E4, E4
*Elset, elset=__PickedSurf10_E2, internal, instance=plaque-1
  46,  49, 137, 691
*Elset, elset=__PickedSurf10_E3, internal, instance=plaque-1
  55, 118
*Elset, elset=__PickedSurf10_E1, internal, instance=plaque-1
 132,
*Elset, elset=__PickedSurf10_E4, internal, instance=plaque-1
 141,
*Surface, type=ELEMENT, name=_PickedSurf10, internal
__PickedSurf10_E2, E2
__PickedSurf10_E3, E3
__PickedSurf10_E4, E4
__PickedSurf10_E1, E1
*Elset, elset=__PickedSurf12_E3, internal, instance=plaque-1
   1,  44,  98, 135
*Elset, elset=__PickedSurf12_E4, internal, instance=plaque-1
  56,  77, 100, 148
*Surface, type=ELEMENT, name=_PickedSurf12, internal
__PickedSurf12_E3, E3
__PickedSurf12_E4, E4
*Elset, elset=__PickedSurf14_E4, internal, instance=plaque-1
  60,  68,  90, 114, 145
*Elset, elset=__PickedSurf14_E3, internal, instance=plaque-1
 70, 88
*Elset, elset=__PickedSurf14_E2, internal, instance=plaque-1
 143,
*Surface, type=ELEMENT, name=_PickedSurf14, internal
__PickedSurf14_E4, E4
__PickedSurf14_E3, E3
__PickedSurf14_E2, E2
** Constraint: Constraint-1
*Coupling, constraint name=Constraint-1, ref node=_PickedSet9, surface=_PickedSurf8
*Kinematic
** Constraint: Constraint-2
*Coupling, constraint name=Constraint-2, ref node=_PickedSet11, surface=_PickedSurf10
*Kinematic
** Constraint: Constraint-3
*Coupling, constraint name=Constraint-3, ref node=_PickedSet13, surface=_PickedSurf12
*Kinematic
** Constraint: Constraint-4
*Coupling, constraint name=Constraint-4, ref node=_PickedSet15, surface=_PickedSurf14
*Kinematic
*End Assembly
** 
** MATERIALS
** 
*Material, name=acier
*Density
 7.86e-09,
*Elastic
210000., 0.26
** ----------------------------------------------------------------
** 
** STEP: analyse_modale
** 
*Step, name=analyse_modale, nlgeom=NO, perturbation
*Frequency, eigensolver=Lanczos, sim, acoustic coupling=on, normalization=mass
, , 500., , , 
** 
** BOUNDARY CONDITIONS
** 
** Name: blocage Type: Symmetry/Antisymmetry/Encastre
*Boundary
_PickedSet16, ENCASTRE
** 
** OUTPUT REQUESTS
** 
*Restart, write, frequency=0
** 
** FIELD OUTPUT: F-Output-1
** 
*Output, field
*Node Output, variable=PRESELECT
** 
** HISTORY OUTPUT: H-Output-1
** 
*Output, history
*Energy Output, variable=ALL
*End Step
