*Heading
** Job name: vibration Model name: Model-1
** Generated by: Abaqus/CAE 2025
*Preprint, echo=NO, model=NO, history=NO, contact=NO
**
** PARTS
**
*Part, name=plaque
*Node
      1,   358.006317,   41.9936714,           0.
      2,   356.834747,   39.1652451,           0.
      3,   358.006317,   36.3368187,           0.
      4,   360.834747,   35.1652451,           0.
      5,   363.663177,   36.3368187,           0.
      6,   364.834747,   39.1652451,           0.
      7,   363.663177,   41.9936714,           0.
      8,   360.834747,   43.1652451,           0.
      9,   36.3368187,   41.9936714,           0.
     10,   35.1652451,   39.1652451,           0.
     11,   36.3368187,   36.3368187,           0.
     12,   39.1652451,   35.1652451,           0.
     13,   41.9936714,   36.3368187,           0.
     14,   43.1652451,   39.1652451,           0.
     15,   41.9936714,   41.9936714,           0.
     16,   39.1652451,   43.1652451,           0.
     17,   41.9936714,   358.006317,           0.
     18,   43.1652451,   360.834747,           0.
     19,   41.9936714,   363.663177,           0.
     20,   39.1652451,   364.834747,           0.
** ... 907 like lines cut
*Element, type=S3
 1,   2, 154,   3
 2, 122, 797,  31
 3, 798,  29, 123
 4, 160,  24, 132
 5, 797, 122, 136
 6, 182, 123, 143
 7, 185, 212, 826
 8, 189, 181, 140
 9, 791, 807, 147
10, 827, 134, 159
11, 198, 810, 156
12, 152, 171, 791
13, 197, 161, 169
14, 313,  38, 211
15, 238, 223, 195
16,  57, 178, 307
17, 221,  54,  53
18, 851, 248, 306
19, 840, 253, 224
20, 345, 225, 244
** ... 26 like lines cut
*Element, type=S4R
 47, 147,   6, 152, 791
 48, 147, 116,   7,   6
 49,   5, 790, 152,   6
 50, 148, 117, 806, 204
 51, 121, 149,  13,  12
 52, 822, 184, 803, 151
 53, 816, 140, 181, 207
 54, 202, 251, 815, 829
 55,  23, 127, 132,  24
 56, 120, 157,  15,  14
 57, 157, 120, 162, 190
 58, 256, 298, 254, 814
 59, 404, 246, 225, 345
 60,   8,   7, 134, 139
 61, 165,  14,  13, 149
 62,   1, 792, 117,   2
 63,  82,  81, 341, 370
 64, 142,  30,  29, 798
 65, 805, 129, 796, 138
 66, 828, 354, 202, 829
** ... 831 like lines cut
*Nset, nset=_PickedSet2, internal, generate
   1,  927,    1
*Elset, elset=_PickedSet2, internal, generate
   1,  897,    1
** Section: tole
*Shell Section, elset=_PickedSet2, material=acier
1., 5
*End Part
**  
**
** ASSEMBLY
**
*Assembly, name=Assembly
**  
*Instance, name=plaque-1, part=plaque
*End Instance
**  
*Node
      1,   39.1652451,   360.834747,           0.
*Node
      2,   39.1652451,   39.1652451,           0.
*Node
      3,   360.834747,   39.1652451,           0.
*Node
      4,   360.834747,   360.834747,           0.
*Nset, nset=_PickedSet9, internal
 1,
*Nset, nset=_PickedSet11, internal
 2,
*Nset, nset=_PickedSet13, internal
 3,
*Nset, nset=_PickedSet15, internal
 4,
*Nset, nset=_PickedSet16, internal, generate
 1,  4,  1
*Elset, elset=__PickedSurf8_E4, internal, instance=plaque-1
  55,  68, 109, 130
*Elset, elset=__PickedSurf8_E2, internal, instance=plaque-1
  67, 137, 154, 155
*Surface, type=ELEMENT, name=_PickedSurf8, internal
__PickedSurf8_E4, E4
__PickedSurf8_E2, E2
*Elset, elset=__PickedSurf10_E3, internal, instance=plaque-1
 51, 56
*Elset, elset=__PickedSurf10_E2, internal, instance=plaque-1
  61, 122, 140, 141, 142
*Elset, elset=__PickedSurf10_E4, internal, instance=plaque-1
 124,
*Surface, type=ELEMENT, name=_PickedSurf10, internal
__PickedSurf10_E3, E3
__PickedSurf10_E2, E2
__PickedSurf10_E4, E4
*Elset, elset=__PickedSurf12_E3, internal, instance=plaque-1
  1, 48
*Elset, elset=__PickedSurf12_E4, internal, instance=plaque-1
 49, 62, 84
*Elset, elset=__PickedSurf12_E1, internal, instance=plaque-1
  60, 136
*Elset, elset=__PickedSurf12_E2, internal, instance=plaque-1
 153,
*Surface, type=ELEMENT, name=_PickedSurf12, internal
__PickedSurf12_E3, E3
__PickedSurf12_E4, E4
__PickedSurf12_E2, E2
__PickedSurf12_E1, E1
*Elset, elset=__PickedSurf14_E2, internal, instance=plaque-1
  64,  75,  76, 147, 151
*Elset, elset=__PickedSurf14_E1, internal, instance=plaque-1
 71,
*Elset, elset=__PickedSurf14_E3, internal, instance=plaque-1
 73,
*Elset, elset=__PickedSurf14_E4, internal, instance=plaque-1
 116,
*Surface, type=ELEMENT, name=_PickedSurf14, internal
__PickedSurf14_E2, E2
__PickedSurf14_E1, E1
__PickedSurf14_E4, E4
__PickedSurf14_E3, E3
** Constraint: Constraint-1
*Coupling, constraint name=Constraint-1, ref node=_PickedSet9, surface=_PickedSurf8
*Kinematic
** Constraint: Constraint-2
*Coupling, constraint name=Constraint-2, ref node=_PickedSet11, surface=_PickedSurf10
*Kinematic
** Constraint: Constraint-3
*Coupling, constraint name=Constraint-3, ref node=_PickedSet13, surface=_PickedSurf12
*Kinematic
** Constraint: Constraint-4
*Coupling, constraint name=Constraint-4, ref node=_PickedSet15, surface=_PickedSurf14
*Kinematic
*End Assembly
** 
** MATERIALS
** 
*Material, name=acier
*Density
 7.86e-09,
*Elastic
210000., 0.26
** ----------------------------------------------------------------
** 
** STEP: analyse_modale
** 
*Step, name=analyse_modale, nlgeom=NO, perturbation
*Frequency, eigensolver=Lanczos, sim, acoustic coupling=on, normalization=mass
, , 500., , , 
** 
** BOUNDARY CONDITIONS
** 
** Name: blocage Type: Symmetry/Antisymmetry/Encastre
*Boundary
_PickedSet16, ENCASTRE
** 
** OUTPUT REQUESTS
** 
*Restart, write, frequency=0
** 
** FIELD OUTPUT: F-Output-1
** 
*Output, field
*Node Output, variable=PRESELECT
** 
** HISTORY OUTPUT: H-Output-1
** 
*Output, history
*Energy Output, variable=ALL
*End Step
