*Heading
** Job name: vibration Model name: Model-1
** Generated by: Abaqus/CAE 2025
*Preprint, echo=NO, model=NO, history=NO, contact=NO
**
** PARTS
**
*Part, name=plaque
*Node
      1,   348.189667,   51.8103218,           0.
      2,   347.018097,   48.9818916,           0.
      3,   348.189667,   46.1534653,           0.
      4,   351.018097,   44.9818916,           0.
      5,   353.846527,   46.1534653,           0.
      6,   355.018097,   48.9818916,           0.
      7,   353.846527,   51.8103218,           0.
      8,   351.018097,   52.9818916,           0.
      9,   46.1534653,   51.8103218,           0.
     10,   44.9818916,   48.9818916,           0.
     11,   46.1534653,   46.1534653,           0.
     12,   48.9818916,   44.9818916,           0.
     13,   51.8103218,   46.1534653,           0.
     14,   52.9818916,   48.9818916,           0.
     15,   51.8103218,   51.8103218,           0.
     16,   48.9818916,   52.9818916,           0.
     17,   51.8103218,   348.189667,           0.
     18,   52.9818916,   351.018097,           0.
     19,   51.8103218,   353.846527,           0.
     20,   48.9818916,   355.018097,           0.
** ... 1314 like lines cut
*Element, type=S3
 1, 1216, 1187,  219
 2,  182,  115,  147
 3,  193,  133,  170
 4,  137,  210,  151
 5, 1205, 1216,  244
 6,  191, 1183,  225
 7,  251,  152,  193
 8, 1216, 1215,  244
 9,  297,  220,  273
10,  195,  339,  226
11,  273,  220,  251
12,  224, 1176,  171
13,  310,  237,  199
14, 1195,  243, 1180
15, 1180, 1063,  244
16,  336,  257,  313
17,  307,  292,  268
18,  294,  253,  275
19, 1208,  309,  255
20, 1213, 1214,  349
** ... 48 like lines cut
*Element, type=S4R
  69,  250,  185,  217,  274
  70,  134,  163, 1146,    5
  71,  135,    3,  121, 1144
  72, 1142,  188,  118,    1
  73,  122,   11,  123,  159
  74,  124,    9, 1147,  196
  75, 1170,  150,  249, 1190
  76,  155,  240,  183,  136
  77,   23, 1153,  140,   24
  78,   15, 1149,  139,   16
  79,  160,  238,  174,  125
  80,  270,  214,  264,  281
  81, 1200,  300, 1188,  238
  82,  142,    8,    7, 1145
  83,   13,  126, 1150,   14
  84,  230,  256, 1220,  301
  85,  160,  125, 1150,  189
  86,   12, 1151,  127,   13
  87,  117,    6,  116,  157
  88,  113, 1142,    1,    8
** ... 1227 like lines cut
*Nset, nset=_PickedSet2, internal, generate
    1,  1334,     1
*Elset, elset=_PickedSet2, internal, generate
    1,  1315,     1
** Section: tole
*Shell Section, elset=_PickedSet2, material=acier
1., 5
*End Part
**  
**
** ASSEMBLY
**
*Assembly, name=Assembly
**  
*Instance, name=plaque-1, part=plaque
*End Instance
**  
*Node
      1,   48.9818916,   351.018097,           0.
*Node
      2,   48.9818916,   48.9818916,           0.
*Node
      3,   351.018097,   48.9818916,           0.
*Node
      4,   351.018097,   351.018097,           0.
*Nset, nset=_PickedSet9, internal
 1,
*Nset, nset=_PickedSet11, internal
 2,
*Nset, nset=_PickedSet13, internal
 3,
*Nset, nset=_PickedSet15, internal
 4,
*Nset, nset=_PickedSet16, internal, generate
 1,  4,  1
*Elset, elset=__PickedSurf8_E4, internal, instance=plaque-1
  77,  96,  99, 175, 194
*Elset, elset=__PickedSurf8_E2, internal, instance=plaque-1
  94, 174
*Elset, elset=__PickedSurf8_E1, internal, instance=plaque-1
 97,
*Surface, type=ELEMENT, name=_PickedSurf8, internal
__PickedSurf8_E4, E4
__PickedSurf8_E2, E2
__PickedSurf8_E1, E1
*Elset, elset=__PickedSurf10_E4, internal, instance=plaque-1
  78,  83,  86, 182
*Elset, elset=__PickedSurf10_E1, internal, instance=plaque-1
 159, 177, 179
*Elset, elset=__PickedSurf10_E2, internal, instance=plaque-1
 178,
*Surface, type=ELEMENT, name=_PickedSurf10, internal
__PickedSurf10_E4, E4
__PickedSurf10_E1, E1
__PickedSurf10_E2, E2
*Elset, elset=__PickedSurf12_E2, internal, instance=plaque-1
  82, 108, 173, 176
*Elset, elset=__PickedSurf12_E3, internal, instance=plaque-1
  88, 113
*Elset, elset=__PickedSurf12_E4, internal, instance=plaque-1
 172, 192
*Surface, type=ELEMENT, name=_PickedSurf12, internal
__PickedSurf12_E2, E2
__PickedSurf12_E3, E3
__PickedSurf12_E4, E4
*Elset, elset=__PickedSurf14_E2, internal, instance=plaque-1
  90, 102, 105, 107, 185, 189, 190
*Elset, elset=__PickedSurf14_E3, internal, instance=plaque-1
 93,
*Surface, type=ELEMENT, name=_PickedSurf14, internal
__PickedSurf14_E2, E2
__PickedSurf14_E3, E3
** Constraint: Constraint-1
*Coupling, constraint name=Constraint-1, ref node=_PickedSet9, surface=_PickedSurf8
*Kinematic
** Constraint: Constraint-2
*Coupling, constraint name=Constraint-2, ref node=_PickedSet11, surface=_PickedSurf10
*Kinematic
** Constraint: Constraint-3
*Coupling, constraint name=Constraint-3, ref node=_PickedSet13, surface=_PickedSurf12
*Kinematic
** Constraint: Constraint-4
*Coupling, constraint name=Constraint-4, ref node=_PickedSet15, surface=_PickedSurf14
*Kinematic
*End Assembly
** 
** MATERIALS
** 
*Material, name=acier
*Density
 7.86e-09,
*Elastic
210000., 0.26
** ----------------------------------------------------------------
** 
** STEP: analyse_modale
** 
*Step, name=analyse_modale, nlgeom=NO, perturbation
*Frequency, eigensolver=Lanczos, sim, acoustic coupling=on, normalization=mass
, , 500., , , 
** 
** BOUNDARY CONDITIONS
** 
** Name: blocage Type: Symmetry/Antisymmetry/Encastre
*Boundary
_PickedSet16, ENCASTRE
** 
** OUTPUT REQUESTS
** 
*Restart, write, frequency=0
** 
** FIELD OUTPUT: F-Output-1
** 
*Output, field
*Node Output, variable=PRESELECT
** 
** HISTORY OUTPUT: H-Output-1
** 
*Output, history
*Energy Output, variable=ALL
*End Step
