*Heading
** Job name: vibration Model name: Model-1
** Generated by: Abaqus/CAE 2025
*Preprint, echo=NO, model=NO, history=NO, contact=NO
**
** PARTS
**
*Part, name=plaque
*Node
      1,   358.050323,   41.9496841,           0.
      2,   356.878754,   39.1212578,           0.
      3,   358.050323,   36.2928314,           0.
      4,   360.878754,   35.1212578,           0.
      5,   363.707184,   36.2928314,           0.
      6,   364.878754,   39.1212578,           0.
      7,   363.707184,   41.9496841,           0.
      8,   360.878754,   43.1212578,           0.
      9,   36.2928314,   41.9496841,           0.
     10,   35.1212578,   39.1212578,           0.
     11,   36.2928314,   36.2928314,           0.
     12,   39.1212578,   35.1212578,           0.
     13,   41.9496841,   36.2928314,           0.
     14,   43.1212578,   39.1212578,           0.
     15,   41.9496841,   41.9496841,           0.
     16,   39.1212578,   43.1212578,           0.
     17,   41.9496841,   358.050323,           0.
     18,   43.1212578,   360.878754,           0.
     19,   41.9496841,   363.707184,           0.
     20,   39.1212578,   364.878754,           0.
** ... 895 like lines cut
*Element, type=S3
 1, 123, 149,  11
 2,   8, 114, 141
 3, 280, 156, 829
 4, 833, 231, 163
 5, 152,   6,   5
 6, 113, 182, 133
 7, 173, 239, 833
 8, 254, 210, 227
 9, 278, 198, 181
10, 271, 255, 266
11, 836, 278, 181
12, 167, 226, 217
13, 832, 241, 212
14, 258, 312, 290
15, 475, 544, 554
16, 519, 449, 481
17, 473, 450, 399
18, 648, 586, 614
19, 754, 610, 637
20, 656, 624, 600
** ... 14 like lines cut
*Element, type=S4R
 35, 118,   6, 152, 147
 36,   5, 134, 823, 152
 37,   4,   3, 155, 145
 38, 161, 195, 167, 119
 39, 127, 148,  13,  12
 40, 181, 198, 831, 151
 41,   9, 117, 124,  10
 42, 135, 159,  23,  22
 43, 146, 135,  22, 136
 44, 158,  15,  14, 125
 45, 166, 196, 158, 125
 46, 295, 247, 839, 230
 47, 233, 266, 255, 251
 48, 126,  14,  13, 148
 49, 125,  14, 126, 166
 50, 119,   2,   1, 161
 51, 270, 299, 314, 281
 52, 129,  30,  29, 154
 53, 128,  30, 129, 169
 54, 130, 154,  29,  28
** ... 825 like lines cut
*Nset, nset=_PickedSet2, internal, generate
   1,  915,    1
*Elset, elset=_PickedSet2, internal, generate
   1,  879,    1
** Section: tole
*Shell Section, elset=_PickedSet2, material=acier
1., 5
*End Part
**  
**
** ASSEMBLY
**
*Assembly, name=Assembly
**  
*Instance, name=plaque-1, part=plaque
*End Instance
**  
*Node
      1,   39.1212578,   360.878754,           0.
*Node
      2,   39.1212578,   39.1212578,           0.
*Node
      3,   360.878754,   39.1212578,           0.
*Node
      4,   360.878754,   360.878754,           0.
*Nset, nset=_PickedSet9, internal
 1,
*Nset, nset=_PickedSet11, internal
 2,
*Nset, nset=_PickedSet13, internal
 3,
*Nset, nset=_PickedSet15, internal
 4,
*Nset, nset=_PickedSet16, internal, generate
 1,  4,  1
*Elset, elset=__PickedSurf8_E3, internal, instance=plaque-1
  42, 147
*Elset, elset=__PickedSurf8_E2, internal, instance=plaque-1
  56,  57, 124, 127
*Elset, elset=__PickedSurf8_E4, internal, instance=plaque-1
 101,
*Elset, elset=__PickedSurf8_E1, internal, instance=plaque-1
 133,
*Surface, type=ELEMENT, name=_PickedSurf8, internal
__PickedSurf8_E3, E3
__PickedSurf8_E2, E2
__PickedSurf8_E4, E4
__PickedSurf8_E1, E1
*Elset, elset=__PickedSurf10_E3, internal, instance=plaque-1
 39,
*Elset, elset=__PickedSurf10_E4, internal, instance=plaque-1
  41, 112, 114
*Elset, elset=__PickedSurf10_E2, internal, instance=plaque-1
  44,  48, 113, 137
*Surface, type=ELEMENT, name=_PickedSurf10, internal
__PickedSurf10_E3, E3
__PickedSurf10_E4, E4
__PickedSurf10_E2, E2
*Elset, elset=__PickedSurf12_E2, internal, instance=plaque-1
   5,  50,  94, 126, 129
*Elset, elset=__PickedSurf12_E1, internal, instance=plaque-1
  37,  67, 136
*Surface, type=ELEMENT, name=_PickedSurf12, internal
__PickedSurf12_E2, E2
__PickedSurf12_E1, E1
*Elset, elset=__PickedSurf14_E2, internal, instance=plaque-1
 52, 66, 85
*Elset, elset=__PickedSurf14_E3, internal, instance=plaque-1
 54, 63
*Elset, elset=__PickedSurf14_E4, internal, instance=plaque-1
 64, 83, 87
*Surface, type=ELEMENT, name=_PickedSurf14, internal
__PickedSurf14_E2, E2
__PickedSurf14_E3, E3
__PickedSurf14_E4, E4
** Constraint: Constraint-1
*Coupling, constraint name=Constraint-1, ref node=_PickedSet9, surface=_PickedSurf8
*Kinematic
** Constraint: Constraint-2
*Coupling, constraint name=Constraint-2, ref node=_PickedSet11, surface=_PickedSurf10
*Kinematic
** Constraint: Constraint-3
*Coupling, constraint name=Constraint-3, ref node=_PickedSet13, surface=_PickedSurf12
*Kinematic
** Constraint: Constraint-4
*Coupling, constraint name=Constraint-4, ref node=_PickedSet15, surface=_PickedSurf14
*Kinematic
*End Assembly
** 
** MATERIALS
** 
*Material, name=acier
*Density
 7.86e-09,
*Elastic
210000., 0.26
** ----------------------------------------------------------------
** 
** STEP: analyse_modale
** 
*Step, name=analyse_modale, nlgeom=NO, perturbation
*Frequency, eigensolver=Lanczos, sim, acoustic coupling=on, normalization=mass
, , 500., , , 
** 
** BOUNDARY CONDITIONS
** 
** Name: blocage Type: Symmetry/Antisymmetry/Encastre
*Boundary
_PickedSet16, ENCASTRE
** 
** OUTPUT REQUESTS
** 
*Restart, write, frequency=0
** 
** FIELD OUTPUT: F-Output-1
** 
*Output, field
*Node Output, variable=PRESELECT
** 
** HISTORY OUTPUT: H-Output-1
** 
*Output, history
*Energy Output, variable=ALL
*End Step
