*Heading
** Job name: vibration Model name: Model-1
** Generated by: Abaqus/CAE 2025
*Preprint, echo=NO, model=NO, history=NO, contact=NO
**
** PARTS
**
*Part, name=plaque
*Node
      1,   384.385254,   15.6147385,           0.
      2,   383.213684,   12.7863111,           0.
      3,   384.385254,   9.95788383,           0.
      4,   387.213684,   8.78631115,           0.
      5,   390.042114,   9.95788383,           0.
      6,   391.213684,   12.7863111,           0.
      7,   390.042114,   15.6147385,           0.
      8,   387.213684,   16.7863102,           0.
      9,   9.95788383,   15.6147385,           0.
     10,   8.78631115,   12.7863111,           0.
     11,   9.95788383,   9.95788383,           0.
     12,   12.7863111,   8.78631115,           0.
     13,   15.6147385,   9.95788383,           0.
     14,   16.7863102,   12.7863111,           0.
     15,   15.6147385,   15.6147385,           0.
     16,   12.7863111,   16.7863102,           0.
     17,   15.6147385,   384.385254,           0.
     18,   16.7863102,   387.213684,           0.
     19,   15.6147385,   390.042114,           0.
     20,   12.7863111,   391.213684,           0.
** ... 633 like lines cut
*Element, type=S3
 1, 127,   3,   2
 2, 217,  76, 158
 3,   5, 142,   6
 4, 146, 134,  34
 5, 126, 129, 156
 6, 175, 156, 132
 7, 146,  34,  55
 8, 142,  33,  74
 9, 596, 112, 111
10, 122,  37,  33
11, 604, 615,  35
12, 145,  75,  36
13, 165,  55,  54
14, 596, 622, 140
15, 158,  76,  75
16, 145, 614,  75
17, 621, 171,  57
18, 176, 170, 163
19, 224, 165,  54
20, 230, 228, 167
** ... 24 like lines cut
*Element, type=S4R
 45, 122,   5,   4, 590
 46, 592,  10,   9, 149
 47, 595,  23,  22, 143
 48,  16,  15, 118, 141
 49, 161, 141, 118, 148
 50, 181,  50,  49, 180
 51, 233, 288, 290, 240
 52,  14,  13, 593, 157
 53, 137, 589,  74, 152
 54, 115,   1, 113, 164
 55, 204, 205, 101, 100
 56, 230, 289, 237, 228
 57, 151,  29, 119, 619
 58, 151, 128,  30,  29
 59, 126, 599,  18, 129
 60, 145,  36, 136, 117
 61,  21,  20, 117, 136
 62, 143,  22,  21, 136
 63,  17, 124, 129,  18
 64,  78,  77, 189, 236
** ... 558 like lines cut
*Nset, nset=_PickedSet2, internal, generate
   1,  653,    1
*Elset, elset=_PickedSet2, internal, generate
   1,  622,    1
** Section: tole
*Shell Section, elset=_PickedSet2, material=acier
1., 5
*End Part
**  
**
** ASSEMBLY
**
*Assembly, name=Assembly
**  
*Instance, name=plaque-1, part=plaque
*End Instance
**  
*Node
      1,   12.7863111,   387.213684,           0.
*Node
      2,   12.7863111,   12.7863111,           0.
*Node
      3,   387.213684,   12.7863111,           0.
*Node
      4,   387.213684,   387.213684,           0.
*Nset, nset=_PickedSet9, internal
 1,
*Nset, nset=_PickedSet11, internal
 2,
*Nset, nset=_PickedSet13, internal
 3,
*Nset, nset=_PickedSet15, internal
 4,
*Nset, nset=_PickedSet16, internal, generate
 1,  4,  1
*Elset, elset=__PickedSurf8_E2, internal, instance=plaque-1
  47,  62, 135, 152
*Elset, elset=__PickedSurf8_E1, internal, instance=plaque-1
  61, 136, 154
*Elset, elset=__PickedSurf8_E4, internal, instance=plaque-1
 63,
*Surface, type=ELEMENT, name=_PickedSurf8, internal
__PickedSurf8_E2, E2
__PickedSurf8_E1, E1
__PickedSurf8_E4, E4
*Elset, elset=__PickedSurf10_E2, internal, instance=plaque-1
  46, 133, 138, 610
*Elset, elset=__PickedSurf10_E1, internal, instance=plaque-1
  48,  52, 140
*Elset, elset=__PickedSurf10_E3, internal, instance=plaque-1
 162,
*Surface, type=ELEMENT, name=_PickedSurf10, internal
__PickedSurf10_E2, E2
__PickedSurf10_E1, E1
__PickedSurf10_E3, E3
*Elset, elset=__PickedSurf12_E2, internal, instance=plaque-1
   1,  31,  45, 131
*Elset, elset=__PickedSurf12_E3, internal, instance=plaque-1
  3, 69
*Elset, elset=__PickedSurf12_E1, internal, instance=plaque-1
 149,
*Elset, elset=__PickedSurf12_E4, internal, instance=plaque-1
 169,
*Surface, type=ELEMENT, name=_PickedSurf12, internal
__PickedSurf12_E2, E2
__PickedSurf12_E3, E3
__PickedSurf12_E4, E4
__PickedSurf12_E1, E1
*Elset, elset=__PickedSurf14_E3, internal, instance=plaque-1
  58, 142
*Elset, elset=__PickedSurf14_E2, internal, instance=plaque-1
  68, 147
*Elset, elset=__PickedSurf14_E4, internal, instance=plaque-1
 112, 146
*Elset, elset=__PickedSurf14_E1, internal, instance=plaque-1
 144, 148
*Surface, type=ELEMENT, name=_PickedSurf14, internal
__PickedSurf14_E3, E3
__PickedSurf14_E2, E2
__PickedSurf14_E4, E4
__PickedSurf14_E1, E1
** Constraint: Constraint-1
*Coupling, constraint name=Constraint-1, ref node=_PickedSet9, surface=_PickedSurf8
*Kinematic
** Constraint: Constraint-2
*Coupling, constraint name=Constraint-2, ref node=_PickedSet11, surface=_PickedSurf10
*Kinematic
** Constraint: Constraint-3
*Coupling, constraint name=Constraint-3, ref node=_PickedSet13, surface=_PickedSurf12
*Kinematic
** Constraint: Constraint-4
*Coupling, constraint name=Constraint-4, ref node=_PickedSet15, surface=_PickedSurf14
*Kinematic
*End Assembly
** 
** MATERIALS
** 
*Material, name=acier
*Density
 7.86e-09,
*Elastic
210000., 0.26
** ----------------------------------------------------------------
** 
** STEP: analyse_modale
** 
*Step, name=analyse_modale, nlgeom=NO, perturbation
*Frequency, eigensolver=Lanczos, sim, acoustic coupling=on, normalization=mass
, , 500., , , 
** 
** BOUNDARY CONDITIONS
** 
** Name: blocage Type: Symmetry/Antisymmetry/Encastre
*Boundary
_PickedSet16, ENCASTRE
** 
** OUTPUT REQUESTS
** 
*Restart, write, frequency=0
** 
** FIELD OUTPUT: F-Output-1
** 
*Output, field
*Node Output, variable=PRESELECT
** 
** HISTORY OUTPUT: H-Output-1
** 
*Output, history
*Energy Output, variable=ALL
*End Step
