*Heading
** Job name: vibration Model name: Model-1
** Generated by: Abaqus/CAE 2025
*Preprint, echo=NO, model=NO, history=NO, contact=NO
**
** PARTS
**
*Part, name=plaque
*Node
      1,   359.065186,    40.934803,           0.
      2,   357.893616,   38.1063728,           0.
      3,   359.065186,   35.2779465,           0.
      4,   361.893616,   34.1063728,           0.
      5,   364.722046,   35.2779465,           0.
      6,   365.893616,   38.1063728,           0.
      7,   364.722046,    40.934803,           0.
      8,   361.893616,   42.1063728,           0.
      9,   35.2779465,    40.934803,           0.
     10,   34.1063728,   38.1063728,           0.
     11,   35.2779465,   35.2779465,           0.
     12,   38.1063728,   34.1063728,           0.
     13,    40.934803,   35.2779465,           0.
     14,   42.1063728,   38.1063728,           0.
     15,    40.934803,    40.934803,           0.
     16,   38.1063728,   42.1063728,           0.
     17,    40.934803,   359.065186,           0.
     18,   42.1063728,   361.893616,           0.
     19,    40.934803,   364.722046,           0.
     20,   38.1063728,   365.893616,           0.
** ... 840 like lines cut
*Element, type=S3
 1, 763, 127, 139
 2, 209, 125, 152
 3, 759, 171, 113
 4, 232, 169, 237
 5, 125, 209, 153
 6, 229, 170, 224
 7, 181, 137, 163
 8, 143,   4, 130
 9, 772, 203, 147
10, 237, 169, 193
11, 774, 148, 186
12, 323, 227, 244
13, 305, 227, 323
14, 785, 220, 784
15, 285, 268, 279
16, 357, 294, 287
17, 421, 291, 365
18, 475, 426, 467
19, 507, 292, 362
20, 565, 432, 520
** ... 16 like lines cut
*Element, type=S4R
 37,   4, 143, 159,   5
 38, 119, 155,   3,   2
 39, 144, 119, 770, 776
 40, 122, 769, 126,  10
 41, 121, 154, 187, 152
 42, 151, 777, 185, 187
 43, 141, 131, 180, 197
 44, 135,  23, 131, 141
 45,  15, 761, 134,  16
 46, 161, 783, 246, 267
 47, 277, 291, 289, 273
 48, 787, 304, 796, 797
 49, 124,  14,  13, 153
 50, 137,   8,   7, 163
 51, 123,  14, 124, 167
 52, 121, 152, 125,  12
 53,   6, 115, 149, 116
 54, 113, 758,   1,   8
 55, 297, 357, 287, 281
 56, 127,  30, 128, 764
** ... 769 like lines cut
*Nset, nset=_PickedSet2, internal, generate
   1,  860,    1
*Elset, elset=_PickedSet2, internal, generate
   1,  825,    1
** Section: tole
*Shell Section, elset=_PickedSet2, material=acier
1., 5
*End Part
**  
**
** ASSEMBLY
**
*Assembly, name=Assembly
**  
*Instance, name=plaque-1, part=plaque
*End Instance
**  
*Node
      1,   38.1063728,   361.893616,           0.
*Node
      2,   38.1063728,   38.1063728,           0.
*Node
      3,   361.893616,   38.1063728,           0.
*Node
      4,   361.893616,   361.893616,           0.
*Nset, nset=_PickedSet9, internal
 1,
*Nset, nset=_PickedSet11, internal
 2,
*Nset, nset=_PickedSet13, internal
 3,
*Nset, nset=_PickedSet15, internal
 4,
*Nset, nset=_PickedSet16, internal, generate
 1,  4,  1
*Elset, elset=__PickedSurf8_E4, internal, instance=plaque-1
  58, 125
*Elset, elset=__PickedSurf8_E2, internal, instance=plaque-1
  59, 135, 150, 801
*Elset, elset=__PickedSurf8_E3, internal, instance=plaque-1
  63, 103
*Surface, type=ELEMENT, name=_PickedSurf8, internal
__PickedSurf8_E4, E4
__PickedSurf8_E2, E2
__PickedSurf8_E3, E3
*Elset, elset=__PickedSurf10_E4, internal, instance=plaque-1
  45, 142
*Elset, elset=__PickedSurf10_E2, internal, instance=plaque-1
  49, 118, 138, 141
*Elset, elset=__PickedSurf10_E3, internal, instance=plaque-1
 87,
*Elset, elset=__PickedSurf10_E1, internal, instance=plaque-1
 139,
*Surface, type=ELEMENT, name=_PickedSurf10, internal
__PickedSurf10_E4, E4
__PickedSurf10_E2, E2
__PickedSurf10_E3, E3
__PickedSurf10_E1, E1
*Elset, elset=__PickedSurf12_E4, internal, instance=plaque-1
 37,
*Elset, elset=__PickedSurf12_E3, internal, instance=plaque-1, generate
 38,  70,  16
*Elset, elset=__PickedSurf12_E2, internal, instance=plaque-1
  50,  72, 131, 134
*Surface, type=ELEMENT, name=_PickedSurf12, internal
__PickedSurf12_E4, E4
__PickedSurf12_E3, E3
__PickedSurf12_E2, E2
*Elset, elset=__PickedSurf14_E4, internal, instance=plaque-1
 65,
*Elset, elset=__PickedSurf14_E2, internal, instance=plaque-1
  68, 115, 144, 148
*Elset, elset=__PickedSurf14_E1, internal, instance=plaque-1
  69, 130
*Elset, elset=__PickedSurf14_E3, internal, instance=plaque-1
 149,
*Surface, type=ELEMENT, name=_PickedSurf14, internal
__PickedSurf14_E4, E4
__PickedSurf14_E2, E2
__PickedSurf14_E1, E1
__PickedSurf14_E3, E3
** Constraint: Constraint-1
*Coupling, constraint name=Constraint-1, ref node=_PickedSet9, surface=_PickedSurf8
*Kinematic
** Constraint: Constraint-2
*Coupling, constraint name=Constraint-2, ref node=_PickedSet11, surface=_PickedSurf10
*Kinematic
** Constraint: Constraint-3
*Coupling, constraint name=Constraint-3, ref node=_PickedSet13, surface=_PickedSurf12
*Kinematic
** Constraint: Constraint-4
*Coupling, constraint name=Constraint-4, ref node=_PickedSet15, surface=_PickedSurf14
*Kinematic
*End Assembly
** 
** MATERIALS
** 
*Material, name=acier
*Density
 7.86e-09,
*Elastic
210000., 0.26
** ----------------------------------------------------------------
** 
** STEP: analyse_modale
** 
*Step, name=analyse_modale, nlgeom=NO, perturbation
*Frequency, eigensolver=Lanczos, sim, acoustic coupling=on, normalization=mass
, , 500., , , 
** 
** BOUNDARY CONDITIONS
** 
** Name: blocage Type: Symmetry/Antisymmetry/Encastre
*Boundary
_PickedSet16, ENCASTRE
** 
** OUTPUT REQUESTS
** 
*Restart, write, frequency=0
** 
** FIELD OUTPUT: F-Output-1
** 
*Output, field
*Node Output, variable=PRESELECT
** 
** HISTORY OUTPUT: H-Output-1
** 
*Output, history
*Energy Output, variable=ALL
*End Step
