*Heading
** Job name: vibration Model name: Model-1
** Generated by: Abaqus/CAE 2025
*Preprint, echo=NO, model=NO, history=NO, contact=NO
**
** PARTS
**
*Part, name=plaque
*Node
      1,   349.807281,   50.1927261,           0.
      2,   348.635712,   47.3642998,           0.
      3,   349.807281,   44.5358734,           0.
      4,   352.635712,   43.3642998,           0.
      5,   355.464142,   44.5358734,           0.
      6,   356.635712,   47.3642998,           0.
      7,   355.464142,   50.1927261,           0.
      8,   352.635712,   51.3642998,           0.
      9,   44.5358734,   50.1927261,           0.
     10,   43.3642998,   47.3642998,           0.
     11,   44.5358734,   44.5358734,           0.
     12,   47.3642998,   43.3642998,           0.
     13,   50.1927261,   44.5358734,           0.
     14,   51.3642998,   47.3642998,           0.
     15,   50.1927261,   50.1927261,           0.
     16,   47.3642998,   51.3642998,           0.
     17,   50.1927261,   349.807281,           0.
     18,   51.3642998,   352.635712,           0.
     19,   50.1927261,   355.464142,           0.
     20,   47.3642998,   356.635712,           0.
** ... 1288 like lines cut
*Element, type=S3
 1,  193,  127,  151
 2, 1143,  194,  128
 3,  215,  131,  147
 4,  184,  125,  160
 5,  191,  268, 1163
 6, 1170,  212, 1056
 7,  283,  245,  249
 8,  288,  217, 1061
 9,  330,  292,  291
10, 1208,  957, 1194
11, 1239,  473,  450
12,  523,  481,  499
13,  537,  470,  491
14,  509,  493,  469
15,  594,  560,  679
16,  615, 1257,  590
17,  703,  667,  643
18, 1018,  657,  608
19,  710,  681,  649
20,  819,  699,  703
** ... 20 like lines cut
*Element, type=S4R
  41,  183, 1167,  219,  149
  42,  149,  117,  154,  183
  43,  118,  157,    3,    2
  44,  173,  118,    2,  120
  45,  124, 1146, 1166, 1144
  46,  212, 1170,  150, 1162
  47,  153, 1145,  125,  184
  48,  116,  161,   16,   15
  49,  163,   23,  137, 1148
  50,  295,  231,  258, 1186
  51,  333,  298,  311,  348
  52,  142,    8,  114,  168
  53,  116,   15,  126,  145
  54,  416, 1200,  362,  394
  55,  228,  259,  214,  193
  56,  127, 1142,   14,   13
  57,   12, 1143,  128,   13
  58,  119,    6,  117,  149
  59,  366, 1209,  456,  403
  60,  130,   30,   29,  156
** ... 1215 like lines cut
*Nset, nset=_PickedSet2, internal, generate
    1,  1308,     1
*Elset, elset=_PickedSet2, internal, generate
    1,  1275,     1
** Section: tole
*Shell Section, elset=_PickedSet2, material=acier
1., 5
*End Part
**  
**
** ASSEMBLY
**
*Assembly, name=Assembly
**  
*Instance, name=plaque-1, part=plaque
*End Instance
**  
*Node
      1,   47.3642998,   352.635712,           0.
*Node
      2,   47.3642998,   47.3642998,           0.
*Node
      3,   352.635712,   47.3642998,           0.
*Node
      4,   352.635712,   352.635712,           0.
*Nset, nset=_PickedSet9, internal
 1,
*Nset, nset=_PickedSet11, internal
 2,
*Nset, nset=_PickedSet13, internal
 3,
*Nset, nset=_PickedSet15, internal
 4,
*Nset, nset=_PickedSet16, internal, generate
 1,  4,  1
*Elset, elset=__PickedSurf8_E3, internal, instance=plaque-1
 64, 67
*Elset, elset=__PickedSurf8_E2, internal, instance=plaque-1
  66, 138, 164
*Elset, elset=__PickedSurf8_E1, internal, instance=plaque-1
  68,  70, 161
*Surface, type=ELEMENT, name=_PickedSurf8, internal
__PickedSurf8_E3, E3
__PickedSurf8_E2, E2
__PickedSurf8_E1, E1
*Elset, elset=__PickedSurf10_E3, internal, instance=plaque-1
  48,  56, 146
*Elset, elset=__PickedSurf10_E4, internal, instance=plaque-1
  57, 145, 147
*Elset, elset=__PickedSurf10_E2, internal, instance=plaque-1
 139, 149
*Surface, type=ELEMENT, name=_PickedSurf10, internal
__PickedSurf10_E3, E3
__PickedSurf10_E4, E4
__PickedSurf10_E2, E2
*Elset, elset=__PickedSurf12_E3, internal, instance=plaque-1
 43, 82
*Elset, elset=__PickedSurf12_E2, internal, instance=plaque-1
  72, 140
*Elset, elset=__PickedSurf12_E1, internal, instance=plaque-1
 78,
*Elset, elset=__PickedSurf12_E4, internal, instance=plaque-1
  81,  86, 105
*Surface, type=ELEMENT, name=_PickedSurf12, internal
__PickedSurf12_E3, E3
__PickedSurf12_E2, E2
__PickedSurf12_E4, E4
__PickedSurf12_E1, E1
*Elset, elset=__PickedSurf14_E2, internal, instance=plaque-1
  60,  76,  77, 155
*Elset, elset=__PickedSurf14_E3, internal, instance=plaque-1
  63,  93, 154
*Elset, elset=__PickedSurf14_E4, internal, instance=plaque-1
 96,
*Surface, type=ELEMENT, name=_PickedSurf14, internal
__PickedSurf14_E2, E2
__PickedSurf14_E3, E3
__PickedSurf14_E4, E4
** Constraint: Constraint-1
*Coupling, constraint name=Constraint-1, ref node=_PickedSet9, surface=_PickedSurf8
*Kinematic
** Constraint: Constraint-2
*Coupling, constraint name=Constraint-2, ref node=_PickedSet11, surface=_PickedSurf10
*Kinematic
** Constraint: Constraint-3
*Coupling, constraint name=Constraint-3, ref node=_PickedSet13, surface=_PickedSurf12
*Kinematic
** Constraint: Constraint-4
*Coupling, constraint name=Constraint-4, ref node=_PickedSet15, surface=_PickedSurf14
*Kinematic
*End Assembly
** 
** MATERIALS
** 
*Material, name=acier
*Density
 7.86e-09,
*Elastic
210000., 0.26
** ----------------------------------------------------------------
** 
** STEP: analyse_modale
** 
*Step, name=analyse_modale, nlgeom=NO, perturbation
*Frequency, eigensolver=Lanczos, sim, acoustic coupling=on, normalization=mass
, , 500., , , 
** 
** BOUNDARY CONDITIONS
** 
** Name: blocage Type: Symmetry/Antisymmetry/Encastre
*Boundary
_PickedSet16, ENCASTRE
** 
** OUTPUT REQUESTS
** 
*Restart, write, frequency=0
** 
** FIELD OUTPUT: F-Output-1
** 
*Output, field
*Node Output, variable=PRESELECT
** 
** HISTORY OUTPUT: H-Output-1
** 
*Output, history
*Energy Output, variable=ALL
*End Step
