*Heading
** Job name: vibration Model name: Model-1
** Generated by: Abaqus/CAE 2025
*Preprint, echo=NO, model=NO, history=NO, contact=NO
**
** PARTS
**
*Part, name=plaque
*Node
      1,     362.4133,   37.5866966,           0.
      2,    361.24173,   34.7582703,           0.
      3,     362.4133,    31.929842,           0.
      4,    365.24173,   30.7582684,           0.
      5,    368.07016,    31.929842,           0.
      6,    369.24173,   34.7582703,           0.
      7,    368.07016,   37.5866966,           0.
      8,    365.24173,   38.7582703,           0.
      9,    31.929842,   37.5866966,           0.
     10,   30.7582684,   34.7582703,           0.
     11,    31.929842,    31.929842,           0.
     12,   34.7582703,   30.7582684,           0.
     13,   37.5866966,    31.929842,           0.
     14,   38.7582703,   34.7582703,           0.
     15,   37.5866966,   37.5866966,           0.
     16,   34.7582703,   38.7582703,           0.
     17,   37.5866966,     362.4133,           0.
     18,   38.7582703,    365.24173,           0.
     19,   37.5866966,    368.07016,           0.
     20,   34.7582703,    369.24173,           0.
** ... 769 like lines cut
*Element, type=S3
 1, 184, 175, 154
 2, 130,   3, 117
 3, 129, 184, 154
 4, 212, 125, 153
 5, 213, 121, 148
 6,  10, 149,  11
 7, 173, 180, 199
 8, 184, 129, 145
 9, 117, 186, 130
10, 713, 155, 141
11, 205, 199, 180
12, 159, 118, 147
13, 216, 166, 198
14, 206,  73,  72
15, 174,  76,  75
16, 177,  95,  94
17, 182,  57,  56
18, 720, 187, 151
19, 227, 234, 171
20, 231, 355, 235
** ... 26 like lines cut
*Element, type=S4R
 47, 181, 175, 184, 202
 48,   5, 129, 154,   6
 49, 117,   3,   2, 693
 50, 714, 153, 149, 152
 51, 136,  16, 114, 164
 52, 143, 185, 160, 131
 53, 131, 160, 134,  23
 54, 114,  16,  15, 696
 55, 183, 249, 701, 209
 56, 706, 176, 219, 198
 57, 410, 355, 231, 363
 58, 727, 190, 167, 215
 59, 696,  15, 123, 137
 60,  48, 255, 314,  49
 61, 124, 151,  14,  13
 62,  11, 149, 153,  12
 63, 694,   1, 116, 138
 64, 350, 289, 263, 323
 65, 283,  60,  59, 311
 66, 169, 127, 141, 715
** ... 693 like lines cut
*Nset, nset=_PickedSet2, internal, generate
   1,  789,    1
*Elset, elset=_PickedSet2, internal, generate
   1,  759,    1
** Section: tole
*Shell Section, elset=_PickedSet2, material=acier
1., 5
*End Part
**  
**
** ASSEMBLY
**
*Assembly, name=Assembly
**  
*Instance, name=plaque-1, part=plaque
*End Instance
**  
*Node
      1,   34.7582703,    365.24173,           0.
*Node
      2,   34.7582703,   34.7582703,           0.
*Node
      3,    365.24173,   34.7582703,           0.
*Node
      4,    365.24173,    365.24173,           0.
*Nset, nset=_PickedSet9, internal
 1,
*Nset, nset=_PickedSet11, internal
 2,
*Nset, nset=_PickedSet13, internal
 3,
*Nset, nset=_PickedSet15, internal
 4,
*Nset, nset=_PickedSet16, internal, generate
 1,  4,  1
*Elset, elset=__PickedSurf8_E2, internal, instance=plaque-1
  70,  71, 149, 163
*Elset, elset=__PickedSurf8_E1, internal, instance=plaque-1
 73,
*Elset, elset=__PickedSurf8_E4, internal, instance=plaque-1
 140, 165
*Elset, elset=__PickedSurf8_E3, internal, instance=plaque-1
 150,
*Surface, type=ELEMENT, name=_PickedSurf8, internal
__PickedSurf8_E2, E2
__PickedSurf8_E1, E1
__PickedSurf8_E4, E4
__PickedSurf8_E3, E3
*Elset, elset=__PickedSurf10_E3, internal, instance=plaque-1
   6,  61, 129
*Elset, elset=__PickedSurf10_E2, internal, instance=plaque-1
  54, 151, 154
*Elset, elset=__PickedSurf10_E4, internal, instance=plaque-1
 62, 94
*Surface, type=ELEMENT, name=_PickedSurf10, internal
__PickedSurf10_E3, E3
__PickedSurf10_E2, E2
__PickedSurf10_E4, E4
*Elset, elset=__PickedSurf12_E4, internal, instance=plaque-1
  48, 112
*Elset, elset=__PickedSurf12_E2, internal, instance=plaque-1
  49, 145, 168
*Elset, elset=__PickedSurf12_E3, internal, instance=plaque-1
 82,
*Elset, elset=__PickedSurf12_E1, internal, instance=plaque-1
 144, 146
*Surface, type=ELEMENT, name=_PickedSurf12, internal
__PickedSurf12_E4, E4
__PickedSurf12_E2, E2
__PickedSurf12_E3, E3
__PickedSurf12_E1, E1
*Elset, elset=__PickedSurf14_E3, internal, instance=plaque-1
 36, 76, 99
*Elset, elset=__PickedSurf14_E2, internal, instance=plaque-1
  67,  74,  80, 161
*Elset, elset=__PickedSurf14_E4, internal, instance=plaque-1
 158,
*Surface, type=ELEMENT, name=_PickedSurf14, internal
__PickedSurf14_E3, E3
__PickedSurf14_E2, E2
__PickedSurf14_E4, E4
** Constraint: Constraint-1
*Coupling, constraint name=Constraint-1, ref node=_PickedSet9, surface=_PickedSurf8
*Kinematic
** Constraint: Constraint-2
*Coupling, constraint name=Constraint-2, ref node=_PickedSet11, surface=_PickedSurf10
*Kinematic
** Constraint: Constraint-3
*Coupling, constraint name=Constraint-3, ref node=_PickedSet13, surface=_PickedSurf12
*Kinematic
** Constraint: Constraint-4
*Coupling, constraint name=Constraint-4, ref node=_PickedSet15, surface=_PickedSurf14
*Kinematic
*End Assembly
** 
** MATERIALS
** 
*Material, name=acier
*Density
 7.86e-09,
*Elastic
210000., 0.26
** ----------------------------------------------------------------
** 
** STEP: analyse_modale
** 
*Step, name=analyse_modale, nlgeom=NO, perturbation
*Frequency, eigensolver=Lanczos, sim, acoustic coupling=on, normalization=mass
, , 500., , , 
** 
** BOUNDARY CONDITIONS
** 
** Name: blocage Type: Symmetry/Antisymmetry/Encastre
*Boundary
_PickedSet16, ENCASTRE
** 
** OUTPUT REQUESTS
** 
*Restart, write, frequency=0
** 
** FIELD OUTPUT: F-Output-1
** 
*Output, field
*Node Output, variable=PRESELECT
** 
** HISTORY OUTPUT: H-Output-1
** 
*Output, history
*Energy Output, variable=ALL
*End Step
