*Heading
** Job name: vibration Model name: Model-1
** Generated by: Abaqus/CAE 2025
*Preprint, echo=NO, model=NO, history=NO, contact=NO
**
** PARTS
**
*Part, name=plaque
*Node
      1,   355.389008,   44.6109962,           0.
      2,   354.217438,   41.7825661,           0.
      3,   355.389008,   38.9541397,           0.
      4,   358.217438,   37.7825661,           0.
      5,   361.045868,   38.9541397,           0.
      6,   362.217438,   41.7825661,           0.
      7,   361.045868,   44.6109962,           0.
      8,   358.217438,   45.7825661,           0.
      9,   38.9541397,   44.6109962,           0.
     10,   37.7825661,   41.7825661,           0.
     11,   38.9541397,   38.9541397,           0.
     12,   41.7825661,   37.7825661,           0.
     13,   44.6109962,   38.9541397,           0.
     14,   45.7825661,   41.7825661,           0.
     15,   44.6109962,   44.6109962,           0.
     16,   41.7825661,   45.7825661,           0.
     17,   44.6109962,   355.389008,           0.
     18,   45.7825661,   358.217438,           0.
     19,   44.6109962,   361.045868,           0.
     20,   41.7825661,   362.217438,           0.
** ... 990 like lines cut
*Element, type=S3
 1,  903,  127,  158
 2,  913,  130,  157
 3,  132,  131,   27
 4,  193,  124,  159
 5,  123,   12,   11
 6,  132,   27,   26
 7,  910,  929,  933
 8,  909,  140,  168
 9,  656,  204,  245
10,  245,  204,  177
11,  916,  215,  151
12,  761,  931,  705
13,  365,  351,  358
14,  344,  318,  233
15,  374,  345,  326
16,  972,  375,  396
17,  489,  499,  519
18,  510,  486,  465
19,  517,  488,  476
20,  537,  506,  483
** ... 18 like lines cut
*Element, type=S4R
 39,  135,  163,    5,    4
 40,  136,    3,  119,  167
 41,  167,  119,  183,  209
 42,  248,  162,  160,  216
 43,  161,  905,  124,  193
 44,  161,  191,  906,  905
 45,    9,  902,  125,   10
 46,  935,  924,  188,  936
 47,  138,  910,  140,   22
 48,  946,  227,  184,  928
 49,  141,   16,   15,  917
 50,  198,  220,  175,  926
 51,  115,  928,  184,  144
 52,  301,  353,  329,  287
 53,  173,  897,  202,  221
 54,   13,  127,  903,   14
 55,  143,    8,  114,  148
 56,  903,  158,  926,  126
 57,   13,  128,  904,  127
 58,  120,  896,    2,    1
** ... 918 like lines cut
*Nset, nset=_PickedSet2, internal, generate
    1,  1010,     1
*Elset, elset=_PickedSet2, internal, generate
   1,  976,    1
** Section: tole
*Shell Section, elset=_PickedSet2, material=acier
1., 5
*End Part
**  
**
** ASSEMBLY
**
*Assembly, name=Assembly
**  
*Instance, name=plaque-1, part=plaque
*End Instance
**  
*Node
      1,   41.7825661,   358.217438,           0.
*Node
      2,   41.7825661,   41.7825661,           0.
*Node
      3,   358.217438,   41.7825661,           0.
*Node
      4,   358.217438,   358.217438,           0.
*Nset, nset=_PickedSet9, internal
 1,
*Nset, nset=_PickedSet11, internal
 2,
*Nset, nset=_PickedSet13, internal
 3,
*Nset, nset=_PickedSet15, internal
 4,
*Nset, nset=_PickedSet16, internal, generate
 1,  4,  1
*Elset, elset=__PickedSurf8_E2, internal, instance=plaque-1
  64, 103, 139
*Elset, elset=__PickedSurf8_E1, internal, instance=plaque-1
 131, 132, 135, 160, 162
*Surface, type=ELEMENT, name=_PickedSurf8, internal
__PickedSurf8_E2, E2
__PickedSurf8_E1, E1
*Elset, elset=__PickedSurf10_E2, internal, instance=plaque-1
   5,  49, 145
*Elset, elset=__PickedSurf10_E4, internal, instance=plaque-1
  45,  54, 133, 148
*Elset, elset=__PickedSurf10_E1, internal, instance=plaque-1
 142,
*Surface, type=ELEMENT, name=_PickedSurf10, internal
__PickedSurf10_E2, E2
__PickedSurf10_E4, E4
__PickedSurf10_E1, E1
*Elset, elset=__PickedSurf12_E3, internal, instance=plaque-1
 39, 58, 75
*Elset, elset=__PickedSurf12_E4, internal, instance=plaque-1
  74, 138
*Elset, elset=__PickedSurf12_E1, internal, instance=plaque-1
 129, 130
*Elset, elset=__PickedSurf12_E2, internal, instance=plaque-1
 136,
*Surface, type=ELEMENT, name=_PickedSurf12, internal
__PickedSurf12_E3, E3
__PickedSurf12_E4, E4
__PickedSurf12_E2, E2
__PickedSurf12_E1, E1
*Elset, elset=__PickedSurf14_E2, internal, instance=plaque-1
   6,  71, 151, 152, 154
*Elset, elset=__PickedSurf14_E4, internal, instance=plaque-1
  60, 167
*Elset, elset=__PickedSurf14_E3, internal, instance=plaque-1
 114,
*Surface, type=ELEMENT, name=_PickedSurf14, internal
__PickedSurf14_E2, E2
__PickedSurf14_E4, E4
__PickedSurf14_E3, E3
** Constraint: Constraint-1
*Coupling, constraint name=Constraint-1, ref node=_PickedSet9, surface=_PickedSurf8
*Kinematic
** Constraint: Constraint-2
*Coupling, constraint name=Constraint-2, ref node=_PickedSet11, surface=_PickedSurf10
*Kinematic
** Constraint: Constraint-3
*Coupling, constraint name=Constraint-3, ref node=_PickedSet13, surface=_PickedSurf12
*Kinematic
** Constraint: Constraint-4
*Coupling, constraint name=Constraint-4, ref node=_PickedSet15, surface=_PickedSurf14
*Kinematic
*End Assembly
** 
** MATERIALS
** 
*Material, name=acier
*Density
 7.86e-09,
*Elastic
210000., 0.26
** ----------------------------------------------------------------
** 
** STEP: analyse_modale
** 
*Step, name=analyse_modale, nlgeom=NO, perturbation
*Frequency, eigensolver=Lanczos, sim, acoustic coupling=on, normalization=mass
, , 500., , , 
** 
** BOUNDARY CONDITIONS
** 
** Name: blocage Type: Symmetry/Antisymmetry/Encastre
*Boundary
_PickedSet16, ENCASTRE
** 
** OUTPUT REQUESTS
** 
*Restart, write, frequency=0
** 
** FIELD OUTPUT: F-Output-1
** 
*Output, field
*Node Output, variable=PRESELECT
** 
** HISTORY OUTPUT: H-Output-1
** 
*Output, history
*Energy Output, variable=ALL
*End Step
