*Heading
** Job name: vibration Model name: Model-1
** Generated by: Abaqus/CAE 2025
*Preprint, echo=NO, model=NO, history=NO, contact=NO
**
** PARTS
**
*Part, name=plaque
*Node
      1,    354.01944,    45.980545,           0.
      2,    352.84787,   43.1521187,           0.
      3,    354.01944,   40.3236923,           0.
      4,    356.84787,   39.1521187,           0.
      5,     359.6763,   40.3236923,           0.
      6,    360.84787,   43.1521187,           0.
      7,     359.6763,    45.980545,           0.
      8,    356.84787,   47.1521187,           0.
      9,   40.3236923,    45.980545,           0.
     10,   39.1521187,   43.1521187,           0.
     11,   40.3236923,   40.3236923,           0.
     12,   43.1521187,   39.1521187,           0.
     13,    45.980545,   40.3236923,           0.
     14,   47.1521187,   43.1521187,           0.
     15,    45.980545,    45.980545,           0.
     16,   43.1521187,   47.1521187,           0.
     17,    45.980545,    354.01944,           0.
     18,   47.1521187,    356.84787,           0.
     19,    45.980545,     359.6763,           0.
     20,   43.1521187,    360.84787,           0.
** ... 1022 like lines cut
*Element, type=S3
 1,  211,  159,  188
 2,  918,  127,  141
 3,  135,  915,   18
 4,  940,  131,  150
 5,  118,  901,    2
 6,  955,  318,  262
 7,  154,  162,  202
 8,  941,  161,  921
 9,  137,  115,   16
10,  930,  231,  194
11,  489,  210,  439
12,  226,  925,  190
13,  196,  152,  169
14,  207,  154,  202
15,  116,  209,  900
16,  190,  925,  158
17,  489,  440,  210
18,  243,  153,  215
19,  145,  208,  181
20,  204,  296,  247
** ... 26 like lines cut
*Element, type=S4R
  47,  899,  184,  166,  140
  48,  943,  160,  189,  441
  49,  131,  160,    5,    4
  50,    3,  117,  902,  164
  51,  117,    3,    2,  901
  52,  905,   11,   10,  123
  53,  260,  923,  211,  188
  54,  904,    9,   16,  115
  55,  148,  912,  134,  186
  56,  910,   23,   22,  136
  57,  906,   15,  124,  171
  58,  157,  223,  171,  124
  59,  177,  138,  143,  224
  60,  272,  488,  412,  233
  61,   13,  125,  907,   14
  62,  140,    8,    7,  899
  63,  157,  124,  907,  933
  64,  125,   13,  126,  156
  65,  903,  118,    2,    1
  66,  249,  266,  959,  294
** ... 946 like lines cut
*Nset, nset=_PickedSet2, internal, generate
    1,  1042,     1
*Elset, elset=_PickedSet2, internal, generate
    1,  1012,     1
** Section: tole
*Shell Section, elset=_PickedSet2, material=acier
1., 5
*End Part
**  
**
** ASSEMBLY
**
*Assembly, name=Assembly
**  
*Instance, name=plaque-1, part=plaque
*End Instance
**  
*Node
      1,   43.1521187,    356.84787,           0.
*Node
      2,   43.1521187,   43.1521187,           0.
*Node
      3,    356.84787,   43.1521187,           0.
*Node
      4,    356.84787,    356.84787,           0.
*Nset, nset=_PickedSet9, internal
 1,
*Nset, nset=_PickedSet11, internal
 2,
*Nset, nset=_PickedSet13, internal
 3,
*Nset, nset=_PickedSet15, internal
 4,
*Nset, nset=_PickedSet16, internal, generate
 1,  4,  1
*Elset, elset=__PickedSurf8_E2, internal, instance=plaque-1
  56,  70, 142, 161, 163
*Elset, elset=__PickedSurf8_E4, internal, instance=plaque-1
 71,
*Elset, elset=__PickedSurf8_E1, internal, instance=plaque-1
 143, 160
*Surface, type=ELEMENT, name=_PickedSurf8, internal
__PickedSurf8_E2, E2
__PickedSurf8_E4, E4
__PickedSurf8_E1, E1
*Elset, elset=__PickedSurf10_E2, internal, instance=plaque-1
  52,  54, 139, 146, 147, 152
*Elset, elset=__PickedSurf10_E4, internal, instance=plaque-1
  61, 150
*Surface, type=ELEMENT, name=_PickedSurf10, internal
__PickedSurf10_E2, E2
__PickedSurf10_E4, E4
*Elset, elset=__PickedSurf12_E3, internal, instance=plaque-1
 49, 65
*Elset, elset=__PickedSurf12_E2, internal, instance=plaque-1
  51,  62, 135, 140
*Elset, elset=__PickedSurf12_E4, internal, instance=plaque-1
  83, 145
*Surface, type=ELEMENT, name=_PickedSurf12, internal
__PickedSurf12_E3, E3
__PickedSurf12_E2, E2
__PickedSurf12_E4, E4
*Elset, elset=__PickedSurf14_E3, internal, instance=plaque-1
 79,
*Elset, elset=__PickedSurf14_E2, internal, instance=plaque-1
  81, 154, 157, 158
*Elset, elset=__PickedSurf14_E4, internal, instance=plaque-1
  95, 137
*Elset, elset=__PickedSurf14_E1, internal, instance=plaque-1
 156,
*Surface, type=ELEMENT, name=_PickedSurf14, internal
__PickedSurf14_E3, E3
__PickedSurf14_E2, E2
__PickedSurf14_E4, E4
__PickedSurf14_E1, E1
** Constraint: Constraint-1
*Coupling, constraint name=Constraint-1, ref node=_PickedSet9, surface=_PickedSurf8
*Kinematic
** Constraint: Constraint-2
*Coupling, constraint name=Constraint-2, ref node=_PickedSet11, surface=_PickedSurf10
*Kinematic
** Constraint: Constraint-3
*Coupling, constraint name=Constraint-3, ref node=_PickedSet13, surface=_PickedSurf12
*Kinematic
** Constraint: Constraint-4
*Coupling, constraint name=Constraint-4, ref node=_PickedSet15, surface=_PickedSurf14
*Kinematic
*End Assembly
** 
** MATERIALS
** 
*Material, name=acier
*Density
 7.86e-09,
*Elastic
210000., 0.26
** ----------------------------------------------------------------
** 
** STEP: analyse_modale
** 
*Step, name=analyse_modale, nlgeom=NO, perturbation
*Frequency, eigensolver=Lanczos, sim, acoustic coupling=on, normalization=mass
, , 500., , , 
** 
** BOUNDARY CONDITIONS
** 
** Name: blocage Type: Symmetry/Antisymmetry/Encastre
*Boundary
_PickedSet16, ENCASTRE
** 
** OUTPUT REQUESTS
** 
*Restart, write, frequency=0
** 
** FIELD OUTPUT: F-Output-1
** 
*Output, field
*Node Output, variable=PRESELECT
** 
** HISTORY OUTPUT: H-Output-1
** 
*Output, history
*Energy Output, variable=ALL
*End Step
