*Heading
** Job name: vibration Model name: Model-1
** Generated by: Abaqus/CAE 2025
*Preprint, echo=NO, model=NO, history=NO, contact=NO
**
** PARTS
**
*Part, name=plaque
*Node
      1,   367.509277,   32.4907112,           0.
      2,   366.337708,   29.6622849,           0.
      3,   367.509277,   26.8338566,           0.
      4,   370.337708,   25.6622849,           0.
      5,   373.166138,   26.8338566,           0.
      6,   374.337708,   29.6622849,           0.
      7,   373.166138,   32.4907112,           0.
      8,   370.337708,   33.6622849,           0.
      9,   26.8338566,   32.4907112,           0.
     10,   25.6622849,   29.6622849,           0.
     11,   26.8338566,   26.8338566,           0.
     12,   29.6622849,   25.6622849,           0.
     13,   32.4907112,   26.8338566,           0.
     14,   33.6622849,   29.6622849,           0.
     15,   32.4907112,   32.4907112,           0.
     16,   29.6622849,   33.6622849,           0.
     17,   32.4907112,   367.509277,           0.
     18,   33.6622849,   370.337708,           0.
     19,   32.4907112,   373.166138,           0.
     20,   29.6622849,   374.337708,           0.
** ... 695 like lines cut
*Element, type=S3
 1, 651, 177, 153
 2,  28, 151, 122
 3, 263, 189, 217
 4, 325, 673, 269
 5, 141,  21,  20
 6, 139,  56, 179
 7, 198, 135, 183
 8, 140, 152, 172
 9, 155, 182, 117
10, 669, 175, 148
11, 652, 169, 138
12, 666, 192, 157
13, 146, 148, 658
14, 117, 182, 141
15, 198, 184, 135
16, 324, 214, 265
17, 681, 373, 260
18, 522, 451, 480
19, 534, 492, 484
20, 698, 543, 480
** ... 14 like lines cut
*Element, type=S4R
 35, 178, 160, 140, 172
 36, 152,   5,   4, 124
 37, 116, 651, 153,   3
 38, 149, 119, 186, 202
 39, 148,  11,  10, 669
 40, 658, 148, 175,  55
 41, 128,  16, 115, 157
 42, 115,  16,  15, 653
 43, 199, 173, 157, 192
 44, 171, 217, 189, 136
 45,  41,  40, 239, 283
 46, 147, 653,  15,  14
 47,   7, 160, 130,   8
 48, 147,  14,  13, 119
 49, 148, 146,  12,  11
 50, 113, 133,   1,   8
 51, 266, 211, 214, 324
 52, 427, 372, 376, 501
 53, 168, 191, 132, 121
 54, 122, 150,  29,  28
** ... 625 like lines cut
*Nset, nset=_PickedSet2, internal, generate
   1,  715,    1
*Elset, elset=_PickedSet2, internal, generate
   1,  679,    1
** Section: tole
*Shell Section, elset=_PickedSet2, material=acier
1., 5
*End Part
**  
**
** ASSEMBLY
**
*Assembly, name=Assembly
**  
*Instance, name=plaque-1, part=plaque
*End Instance
**  
*Node
      1,   29.6622849,   370.337708,           0.
*Node
      2,   29.6622849,   29.6622849,           0.
*Node
      3,   370.337708,   29.6622849,           0.
*Node
      4,   370.337708,   370.337708,           0.
*Nset, nset=_PickedSet9, internal
 1,
*Nset, nset=_PickedSet11, internal
 2,
*Nset, nset=_PickedSet13, internal
 3,
*Nset, nset=_PickedSet15, internal
 4,
*Nset, nset=_PickedSet16, internal, generate
 1,  4,  1
*Elset, elset=__PickedSurf8_E2, internal, instance=plaque-1
   5,  56, 126, 136, 140
*Elset, elset=__PickedSurf8_E3, internal, instance=plaque-1
  57,  59, 116
*Surface, type=ELEMENT, name=_PickedSurf8, internal
__PickedSurf8_E2, E2
__PickedSurf8_E3, E3
*Elset, elset=__PickedSurf10_E2, internal, instance=plaque-1
  39,  42,  48, 105, 129
*Elset, elset=__PickedSurf10_E3, internal, instance=plaque-1
 46, 49
*Elset, elset=__PickedSurf10_E4, internal, instance=plaque-1
 104,
*Surface, type=ELEMENT, name=_PickedSurf10, internal
__PickedSurf10_E2, E2
__PickedSurf10_E3, E3
__PickedSurf10_E4, E4
*Elset, elset=__PickedSurf12_E2, internal, instance=plaque-1
 36, 66
*Elset, elset=__PickedSurf12_E4, internal, instance=plaque-1
  47, 121
*Elset, elset=__PickedSurf12_E3, internal, instance=plaque-1
  50, 134
*Elset, elset=__PickedSurf12_E1, internal, instance=plaque-1
  68, 122
*Surface, type=ELEMENT, name=_PickedSurf12, internal
__PickedSurf12_E2, E2
__PickedSurf12_E4, E4
__PickedSurf12_E3, E3
__PickedSurf12_E1, E1
*Elset, elset=__PickedSurf14_E3, internal, instance=plaque-1
 54,
*Elset, elset=__PickedSurf14_E2, internal, instance=plaque-1
  62, 130, 131
*Elset, elset=__PickedSurf14_E4, internal, instance=plaque-1
 63, 64
*Elset, elset=__PickedSurf14_E1, internal, instance=plaque-1
  65, 119
*Surface, type=ELEMENT, name=_PickedSurf14, internal
__PickedSurf14_E3, E3
__PickedSurf14_E2, E2
__PickedSurf14_E4, E4
__PickedSurf14_E1, E1
** Constraint: Constraint-1
*Coupling, constraint name=Constraint-1, ref node=_PickedSet9, surface=_PickedSurf8
*Kinematic
** Constraint: Constraint-2
*Coupling, constraint name=Constraint-2, ref node=_PickedSet11, surface=_PickedSurf10
*Kinematic
** Constraint: Constraint-3
*Coupling, constraint name=Constraint-3, ref node=_PickedSet13, surface=_PickedSurf12
*Kinematic
** Constraint: Constraint-4
*Coupling, constraint name=Constraint-4, ref node=_PickedSet15, surface=_PickedSurf14
*Kinematic
*End Assembly
** 
** MATERIALS
** 
*Material, name=acier
*Density
 7.86e-09,
*Elastic
210000., 0.26
** ----------------------------------------------------------------
** 
** STEP: analyse_modale
** 
*Step, name=analyse_modale, nlgeom=NO, perturbation
*Frequency, eigensolver=Lanczos, sim, acoustic coupling=on, normalization=mass
, , 500., , , 
** 
** BOUNDARY CONDITIONS
** 
** Name: blocage Type: Symmetry/Antisymmetry/Encastre
*Boundary
_PickedSet16, ENCASTRE
** 
** OUTPUT REQUESTS
** 
*Restart, write, frequency=0
** 
** FIELD OUTPUT: F-Output-1
** 
*Output, field
*Node Output, variable=PRESELECT
** 
** HISTORY OUTPUT: H-Output-1
** 
*Output, history
*Energy Output, variable=ALL
*End Step
