*Heading
** Job name: vibration Model name: Model-1
** Generated by: Abaqus/CAE 2025
*Preprint, echo=NO, model=NO, history=NO, contact=NO
**
** PARTS
**
*Part, name=plaque
*Node
      1,    382.17157,   17.8284264,           0.
      2,         381.,          15.,           0.
      3,    382.17157,   12.1715727,           0.
      4,         385.,          11.,           0.
      5,    387.82843,   12.1715727,           0.
      6,         389.,          15.,           0.
      7,    387.82843,   17.8284264,           0.
      8,         385.,          19.,           0.
      9,   12.1715727,   17.8284264,           0.
     10,          11.,          15.,           0.
     11,   12.1715727,   12.1715727,           0.
     12,          15.,          11.,           0.
     13,   17.8284264,   12.1715727,           0.
     14,          19.,          15.,           0.
     15,   17.8284264,   17.8284264,           0.
     16,          15.,          19.,           0.
     17,   17.8284264,    382.17157,           0.
     18,          19.,         385.,           0.
     19,   17.8284264,    387.82843,           0.
     20,          15.,         389.,           0.
** ... 626 like lines cut
*Element, type=S3
 1, 593, 149, 605
 2, 615, 219, 174
 3,  18, 148,  19
 4, 130, 126,   8
 5, 116,  21,  20
 6, 581, 151, 118
 7, 137, 586,  36
 8, 142, 127,  11
 9, 601, 138,  93
10, 596,  33, 595
11, 603,  75, 136
12, 137,  36, 112
13, 600, 125, 132
14, 597, 578, 167
15, 217, 151,  54
16, 619, 606, 149
17,  54, 151,  55
18, 220, 163, 174
19, 154,  57,  56
20, 622, 617, 325
** ... 32 like lines cut
*Element, type=S4R
 53, 595,  74, 578, 113
 54, 131,   5,   4, 124
 55, 596, 131, 124, 606
 56, 606, 124, 576, 149
 57,  34,  55, 119, 127
 58, 142,  11,  10, 580
 59,  11, 127, 119,  12
 60, 153, 169,  95, 579
 61,  22, 125, 585,  23
 62, 147, 111, 165, 583
 63, 128,  15,  14, 143
 64, 285, 251, 252, 322
 65, 581,  14,  13, 117
 66, 119,  55, 151, 117
 67, 126, 123,   1,   8
 68, 230, 185, 184, 282
 69, 384, 390, 626, 381
 70, 588, 145,  93,  92
 71, 590, 145,  29,  28
 72,  21, 132, 125,  22
** ... 547 like lines cut
*Nset, nset=_PickedSet2, internal, generate
   1,  646,    1
*Elset, elset=_PickedSet2, internal, generate
   1,  619,    1
** Section: tole
*Shell Section, elset=_PickedSet2, material=cuivre
14., 5
*End Part
**  
**
** ASSEMBLY
**
*Assembly, name=Assembly
**  
*Instance, name=plaque-1, part=plaque
*End Instance
**  
*Node
      1,          15.,         385.,           0.
*Node
      2,          15.,          15.,           0.
*Node
      3,         385.,          15.,           0.
*Node
      4,         385.,         385.,           0.
*Nset, nset=_PickedSet9, internal
 1,
*Nset, nset=_PickedSet11, internal
 2,
*Nset, nset=_PickedSet13, internal
 3,
*Nset, nset=_PickedSet15, internal
 4,
*Nset, nset=_PickedSet16, internal, generate
 1,  4,  1
*Elset, elset=__PickedSurf8_E3, internal, instance=plaque-1
   3, 150
*Elset, elset=__PickedSurf8_E2, internal, instance=plaque-1
   5, 107, 136
*Elset, elset=__PickedSurf8_E4, internal, instance=plaque-1
  61,  72, 173
*Surface, type=ELEMENT, name=_PickedSurf8, internal
__PickedSurf8_E3, E3
__PickedSurf8_E2, E2
__PickedSurf8_E4, E4
*Elset, elset=__PickedSurf10_E2, internal, instance=plaque-1
  58,  63,  65, 137
*Elset, elset=__PickedSurf10_E4, internal, instance=plaque-1
  59, 120, 121
*Elset, elset=__PickedSurf10_E1, internal, instance=plaque-1
 139,
*Surface, type=ELEMENT, name=_PickedSurf10, internal
__PickedSurf10_E2, E2
__PickedSurf10_E4, E4
__PickedSurf10_E1, E1
*Elset, elset=__PickedSurf12_E2, internal, instance=plaque-1
  54, 131
*Elset, elset=__PickedSurf12_E3, internal, instance=plaque-1
 67, 81
*Elset, elset=__PickedSurf12_E1, internal, instance=plaque-1
  78, 132
*Elset, elset=__PickedSurf12_E4, internal, instance=plaque-1
  79, 133
*Surface, type=ELEMENT, name=_PickedSurf12, internal
__PickedSurf12_E2, E2
__PickedSurf12_E3, E3
__PickedSurf12_E4, E4
__PickedSurf12_E1, E1
*Elset, elset=__PickedSurf14_E3, internal, instance=plaque-1
 71, 76, 95
*Elset, elset=__PickedSurf14_E1, internal, instance=plaque-1
 142, 144
*Elset, elset=__PickedSurf14_E2, internal, instance=plaque-1
 143,
*Elset, elset=__PickedSurf14_E4, internal, instance=plaque-1
 171, 598
*Surface, type=ELEMENT, name=_PickedSurf14, internal
__PickedSurf14_E3, E3
__PickedSurf14_E1, E1
__PickedSurf14_E2, E2
__PickedSurf14_E4, E4
** Constraint: Constraint-1
*Coupling, constraint name=Constraint-1, ref node=_PickedSet9, surface=_PickedSurf8
*Kinematic
** Constraint: Constraint-2
*Coupling, constraint name=Constraint-2, ref node=_PickedSet11, surface=_PickedSurf10
*Kinematic
** Constraint: Constraint-3
*Coupling, constraint name=Constraint-3, ref node=_PickedSet13, surface=_PickedSurf12
*Kinematic
** Constraint: Constraint-4
*Coupling, constraint name=Constraint-4, ref node=_PickedSet15, surface=_PickedSurf14
*Kinematic
*End Assembly
** 
** MATERIALS
** 
*Material, name=cuivre
*Density
 8.96e-09,
*Elastic
124000., 0.36
** ----------------------------------------------------------------
** 
** STEP: analyse_modale
** 
*Step, name=analyse_modale, nlgeom=NO, perturbation
*Frequency, eigensolver=Lanczos, sim, acoustic coupling=on, normalization=mass
, , 500., , , 
** 
** BOUNDARY CONDITIONS
** 
** Name: blocage Type: Symmetry/Antisymmetry/Encastre
*Boundary
_PickedSet16, ENCASTRE
** 
** OUTPUT REQUESTS
** 
*Restart, write, frequency=0
** 
** FIELD OUTPUT: F-Output-1
** 
*Output, field
*Node Output, variable=PRESELECT
** 
** HISTORY OUTPUT: H-Output-1
** 
*Output, history
*Energy Output, variable=ALL
*End Step
