*Heading
** Job name: vibration Model name: Model-1
** Generated by: Abaqus/CAE 2025
*Preprint, echo=NO, model=NO, history=NO, contact=NO
**
** PARTS
**
*Part, name=plaque
*Node
      1,    232.17157,    167.82843,           0.
      2,         231.,         165.,           0.
      3,    232.17157,    162.17157,           0.
      4,         235.,         161.,           0.
      5,    237.82843,    162.17157,           0.
      6,         239.,         165.,           0.
      7,    237.82843,    167.82843,           0.
      8,         235.,         169.,           0.
      9,    162.17157,    167.82843,           0.
     10,         161.,         165.,           0.
     11,    162.17157,    162.17157,           0.
     12,         165.,         161.,           0.
     13,    167.82843,    162.17157,           0.
     14,         169.,         165.,           0.
     15,    167.82843,    167.82843,           0.
     16,         165.,         169.,           0.
     17,    167.82843,    232.17157,           0.
     18,         169.,         235.,           0.
     19,    167.82843,    237.82843,           0.
     20,         165.,         239.,           0.
** ... 2283 like lines cut
*Element, type=S3
 1,  217,  138,  159
 2,  194,  132,  152
 3, 1975,  271,  315
 4, 1994,  629,  472
 5,  617,  428,  538
 6,  649,  470,  493
 7,  648,  471,  492
 8, 2083,  992, 1162
 9, 2018,  498,  436
10, 1016,  932,  841
11, 2144,  838,  761
12, 1365, 1091, 1174
13,  919,  744,  830
14,  922, 2176,  842
15, 1037,  853,  948
16,  972, 1064,  792
17, 2204, 1239, 1283
18, 1355, 1295, 1244
19, 2185, 1270, 1190
20, 1032,  944, 1027
** ... 38 like lines cut
*Element, type=S4R
  59,  176,  113,  200,  272
  60,  707,  490,  600,  883
  61,  114,  164,    5,    4
  62,  269,  202,  236,  359
  63,  219,  147, 1946,  296
  64,    3,    2,  127,  168
  65,  175,  116,  199,  244
  66,  117,  166,   11,   10
  67,  268,  201,  235,  360
  68, 1862, 1761,   55,   54
  69,  195,  120,   16,  153
  70,  242,  174, 1948,  306
  71,   10,  118,  173,  117
  72,    9,   16,  120,  161
  73,  121,  153,   16,   15
  74,  184,  123,  154,  212
  75,  581,  680,  505,  456
  76,   15,  123,  145,  121
  77,  122,  146,    1,    8
  78,  125,  154,   14,   13
** ... 2201 like lines cut
*Nset, nset=_PickedSet2, internal, generate
    1,  2303,     1
*Elset, elset=_PickedSet2, internal, generate
    1,  2279,     1
** Section: tole
*Shell Section, elset=_PickedSet2, material=cuivre
18., 5
*End Part
**  
**
** ASSEMBLY
**
*Assembly, name=Assembly
**  
*Instance, name=plaque-1, part=plaque
*End Instance
**  
*Node
      1,         165.,         235.,           0.
*Node
      2,         165.,         165.,           0.
*Node
      3,         235.,         165.,           0.
*Node
      4,         235.,         235.,           0.
*Nset, nset=_PickedSet9, internal
 1,
*Nset, nset=_PickedSet11, internal
 2,
*Nset, nset=_PickedSet13, internal
 3,
*Nset, nset=_PickedSet15, internal
 4,
*Nset, nset=_PickedSet16, internal, generate
 1,  4,  1
*Elset, elset=__PickedSurf8_E2, internal, instance=plaque-1
  89, 191, 192
*Elset, elset=__PickedSurf8_E3, internal, instance=plaque-1
 91, 93, 94, 98
*Elset, elset=__PickedSurf8_E4, internal, instance=plaque-1
 161,
*Surface, type=ELEMENT, name=_PickedSurf8, internal
__PickedSurf8_E2, E2
__PickedSurf8_E3, E3
__PickedSurf8_E4, E4
*Elset, elset=__PickedSurf10_E3, internal, instance=plaque-1
  66,  73,  78, 168
*Elset, elset=__PickedSurf10_E1, internal, instance=plaque-1
 72,
*Elset, elset=__PickedSurf10_E2, internal, instance=plaque-1
 169, 173, 178
*Surface, type=ELEMENT, name=_PickedSurf10, internal
__PickedSurf10_E3, E3
__PickedSurf10_E1, E1
__PickedSurf10_E2, E2
*Elset, elset=__PickedSurf12_E3, internal, instance=plaque-1
  61,  77, 200
*Elset, elset=__PickedSurf12_E1, internal, instance=plaque-1
 64,
*Elset, elset=__PickedSurf12_E4, internal, instance=plaque-1
 107,
*Elset, elset=__PickedSurf12_E2, internal, instance=plaque-1
 166, 167, 176
*Surface, type=ELEMENT, name=_PickedSurf12, internal
__PickedSurf12_E3, E3
__PickedSurf12_E1, E1
__PickedSurf12_E4, E4
__PickedSurf12_E2, E2
*Elset, elset=__PickedSurf14_E1, internal, instance=plaque-1
 82,
*Elset, elset=__PickedSurf14_E3, internal, instance=plaque-1
  85,  88, 102, 105
*Elset, elset=__PickedSurf14_E2, internal, instance=plaque-1
 183, 184, 196
*Surface, type=ELEMENT, name=_PickedSurf14, internal
__PickedSurf14_E1, E1
__PickedSurf14_E3, E3
__PickedSurf14_E2, E2
** Constraint: Constraint-1
*Coupling, constraint name=Constraint-1, ref node=_PickedSet9, surface=_PickedSurf8
*Kinematic
** Constraint: Constraint-2
*Coupling, constraint name=Constraint-2, ref node=_PickedSet11, surface=_PickedSurf10
*Kinematic
** Constraint: Constraint-3
*Coupling, constraint name=Constraint-3, ref node=_PickedSet13, surface=_PickedSurf12
*Kinematic
** Constraint: Constraint-4
*Coupling, constraint name=Constraint-4, ref node=_PickedSet15, surface=_PickedSurf14
*Kinematic
*End Assembly
** 
** MATERIALS
** 
*Material, name=cuivre
*Density
 8.96e-09,
*Elastic
124000., 0.36
** ----------------------------------------------------------------
** 
** STEP: analyse_modale
** 
*Step, name=analyse_modale, nlgeom=NO, perturbation
*Frequency, eigensolver=Lanczos, sim, acoustic coupling=on, normalization=mass
, , 500., , , 
** 
** BOUNDARY CONDITIONS
** 
** Name: blocage Type: Symmetry/Antisymmetry/Encastre
*Boundary
_PickedSet16, ENCASTRE
** 
** OUTPUT REQUESTS
** 
*Restart, write, frequency=0
** 
** FIELD OUTPUT: F-Output-1
** 
*Output, field
*Node Output, variable=PRESELECT
** 
** HISTORY OUTPUT: H-Output-1
** 
*Output, history
*Energy Output, variable=ALL
*End Step
