*Heading
** Job name: vibration Model name: Model-1
** Generated by: Abaqus/CAE 2025
*Preprint, echo=NO, model=NO, history=NO, contact=NO
**
** PARTS
**
*Part, name=plaque
*Node
      1,    222.17157,    177.82843,           0.
      2,         221.,         175.,           0.
      3,    222.17157,    172.17157,           0.
      4,         225.,         171.,           0.
      5,    227.82843,    172.17157,           0.
      6,         229.,         175.,           0.
      7,    227.82843,    177.82843,           0.
      8,         225.,         179.,           0.
      9,    172.17157,    177.82843,           0.
     10,         171.,         175.,           0.
     11,    172.17157,    172.17157,           0.
     12,         175.,         171.,           0.
     13,    177.82843,    172.17157,           0.
     14,         179.,         175.,           0.
     15,    177.82843,    177.82843,           0.
     16,         175.,         179.,           0.
     17,    177.82843,    222.17157,           0.
     18,         179.,         225.,           0.
     19,    177.82843,    227.82843,           0.
     20,         175.,         229.,           0.
** ... 1853 like lines cut
*Element, type=S3
 1, 1310, 1293, 1232
 2,  945,  943,  916
 3,  199,  137,  157
 4,  186,  243,  159
 5,  681,  617,  475
 6,  299,  195,  245
 7,  293,  210,  253
 8, 1734,  456,  508
 9,  339,  229,  286
10,  434,  393,  365
11,  706, 1711,  513
12,  728,  563,  679
13, 1632,  553,  405
14,  567,  416,  491
15,  595,  441,  489
16,  988,  928,  953
17,  594,  435,  505
18,  641,  496,  571
19,  697,  754,  536
20,  659,  590,  506
** ... 60 like lines cut
*Element, type=S4R
  81,  277,  205,  257,  398
  82,  291,  534,  350,  293
  83,  114,  163,    5,    4
  84,  217,  296,  169,  126
  85,  125,  145,   13,   12
  86,  302,  211,  252, 1649
  87,  116,  165,   11,   10
  88,  216,  295,  172,  117
  89, 1386, 1621, 1492, 1494
  90,   10,  117,  172,  116
  91,    9,   16,  119,  167
  92,   23,   22,  118,  149
  93,   16,  120,  154,  119
  94,  338,  381,  281,  226
  95,  187, 1653, 1652,  233
  96,  146,  122,  155,  191
  97,  121,  147,    1,    8
  98,   14,  124,  155,  122
  99,   12,  115,  174,  125
 100,  208,  128,  156,  248
** ... 1760 like lines cut
*Nset, nset=_PickedSet2, internal, generate
    1,  1873,     1
*Elset, elset=_PickedSet2, internal, generate
    1,  1860,     1
** Section: tole
*Shell Section, elset=_PickedSet2, material=acier
5., 5
*End Part
**  
**
** ASSEMBLY
**
*Assembly, name=Assembly
**  
*Instance, name=plaque-1, part=plaque
*End Instance
**  
*Node
      1,         175.,         225.,           0.
*Node
      2,         175.,         175.,           0.
*Node
      3,         225.,         175.,           0.
*Node
      4,         225.,         225.,           0.
*Nset, nset=_PickedSet9, internal
 1,
*Nset, nset=_PickedSet11, internal
 2,
*Nset, nset=_PickedSet13, internal
 3,
*Nset, nset=_PickedSet15, internal
 4,
*Nset, nset=_PickedSet16, internal, generate
 1,  4,  1
*Elset, elset=__PickedSurf8_E1, internal, instance=plaque-1
 92,
*Elset, elset=__PickedSurf8_E3, internal, instance=plaque-1
 111, 115
*Elset, elset=__PickedSurf8_E4, internal, instance=plaque-1
 177,
*Elset, elset=__PickedSurf8_E2, internal, instance=plaque-1
 207, 209, 210, 212
*Surface, type=ELEMENT, name=_PickedSurf8, internal
__PickedSurf8_E1, E1
__PickedSurf8_E3, E3
__PickedSurf8_E4, E4
__PickedSurf8_E2, E2
*Elset, elset=__PickedSurf10_E3, internal, instance=plaque-1
 85, 87
*Elset, elset=__PickedSurf10_E1, internal, instance=plaque-1
  91, 191
*Elset, elset=__PickedSurf10_E2, internal, instance=plaque-1
 184, 185, 189, 193
*Surface, type=ELEMENT, name=_PickedSurf10, internal
__PickedSurf10_E3, E3
__PickedSurf10_E1, E1
__PickedSurf10_E2, E2
*Elset, elset=__PickedSurf12_E3, internal, instance=plaque-1
  83,  97, 197, 218
*Elset, elset=__PickedSurf12_E4, internal, instance=plaque-1
 124,
*Elset, elset=__PickedSurf12_E2, internal, instance=plaque-1
 181, 182, 195
*Surface, type=ELEMENT, name=_PickedSurf12, internal
__PickedSurf12_E3, E3
__PickedSurf12_E4, E4
__PickedSurf12_E2, E2
*Elset, elset=__PickedSurf14_E3, internal, instance=plaque-1
 104, 162
*Elset, elset=__PickedSurf14_E2, internal, instance=plaque-1
 121, 199, 202, 203
*Elset, elset=__PickedSurf14_E4, internal, instance=plaque-1
 144,
*Elset, elset=__PickedSurf14_E1, internal, instance=plaque-1
 215,
*Surface, type=ELEMENT, name=_PickedSurf14, internal
__PickedSurf14_E3, E3
__PickedSurf14_E2, E2
__PickedSurf14_E4, E4
__PickedSurf14_E1, E1
** Constraint: Constraint-1
*Coupling, constraint name=Constraint-1, ref node=_PickedSet9, surface=_PickedSurf8
*Kinematic
** Constraint: Constraint-2
*Coupling, constraint name=Constraint-2, ref node=_PickedSet11, surface=_PickedSurf10
*Kinematic
** Constraint: Constraint-3
*Coupling, constraint name=Constraint-3, ref node=_PickedSet13, surface=_PickedSurf12
*Kinematic
** Constraint: Constraint-4
*Coupling, constraint name=Constraint-4, ref node=_PickedSet15, surface=_PickedSurf14
*Kinematic
*End Assembly
** 
** MATERIALS
** 
*Material, name=acier
*Density
 7.86e-09,
*Elastic
210000., 0.26
** ----------------------------------------------------------------
** 
** STEP: analyse_modale
** 
*Step, name=analyse_modale, nlgeom=NO, perturbation
*Frequency, eigensolver=Lanczos, sim, acoustic coupling=on, normalization=mass
, , 500., , , 
** 
** BOUNDARY CONDITIONS
** 
** Name: blocage Type: Symmetry/Antisymmetry/Encastre
*Boundary
_PickedSet16, ENCASTRE
** 
** OUTPUT REQUESTS
** 
*Restart, write, frequency=0
** 
** FIELD OUTPUT: F-Output-1
** 
*Output, field
*Node Output, variable=PRESELECT
** 
** HISTORY OUTPUT: H-Output-1
** 
*Output, history
*Energy Output, variable=ALL
*End Step
