*Heading
** Job name: vibration Model name: Model-1
** Generated by: Abaqus/CAE 2025
*Preprint, echo=NO, model=NO, history=NO, contact=NO
**
** PARTS
**
*Part, name=plaque
*Node
      1,    212.17157,    187.82843,           0.
      2,         211.,         185.,           0.
      3,    212.17157,    182.17157,           0.
      4,         215.,         181.,           0.
      5,    217.82843,    182.17157,           0.
      6,         219.,         185.,           0.
      7,    217.82843,    187.82843,           0.
      8,         215.,         189.,           0.
      9,    182.17157,    187.82843,           0.
     10,         181.,         185.,           0.
     11,    182.17157,    182.17157,           0.
     12,         185.,         181.,           0.
     13,    187.82843,    182.17157,           0.
     14,         189.,         185.,           0.
     15,    187.82843,    187.82843,           0.
     16,         185.,         189.,           0.
     17,    187.82843,    212.17157,           0.
     18,         189.,         215.,           0.
     19,    187.82843,    217.82843,           0.
     20,         185.,         219.,           0.
** ... 1492 like lines cut
*Element, type=S3
 1,  402,  388,  305
 2,  252,  154,  205
 3, 1409,  479,  492
 4, 1317,  253,  166
 5, 1348, 1357,  191
 6,  291,  198,  240
 7,  282,  193,  236
 8, 1325,  223,  178
 9,  260,  297,  172
10,  287,  239,  199
11,  353,  325,  224
12,  338,  217,  252
13,  354,  277,  323
14,  322,  278,  294
15,  371,  409,  311
16,  374,  316,  318
17, 1406,  587,  537
18, 1341,  409,  440
19,  304,  430,  439
20,  526, 1372,  541
** ... 36 like lines cut
*Element, type=S4R
  57,  302,  213,  254,  346
  58,  254,  215,  296,  346
  59,  114,  164,    5,    4
  60,  503,  525,  551,  517
  61,  125,  145,   13,   12
  62,  214,  253,  347,  402
  63,  172,  116,   11,   10
  64, 1064, 1318, 1166, 1191
  65,  172,   10,  117,  260
  66,    9,   16,  119,  168
  67,   23,   22,  118,  150
  68,   16,  120,  156,  119
  69,  122,  157,  201,  200
  70,  199,  239,  152,  139
  71,  122,  146,   15,   14
  72,  189,  240,  148,  121
  73,   14,  124,  157,  122
  74,   12,  115,  174,  125
  75,  261,  149,  177, 1326
  76,  281,  238, 1328,  288
** ... 1411 like lines cut
*Nset, nset=_PickedSet2, internal, generate
    1,  1512,     1
*Elset, elset=_PickedSet2, internal, generate
    1,  1487,     1
** Section: tole
*Shell Section, elset=_PickedSet2, material=cuivre
0.5, 5
*End Part
**  
**
** ASSEMBLY
**
*Assembly, name=Assembly
**  
*Instance, name=plaque-1, part=plaque
*End Instance
**  
*Node
      1,         185.,         215.,           0.
*Node
      2,         185.,         185.,           0.
*Node
      3,         215.,         185.,           0.
*Node
      4,         215.,         215.,           0.
*Nset, nset=_PickedSet9, internal
 1,
*Nset, nset=_PickedSet11, internal
 2,
*Nset, nset=_PickedSet13, internal
 3,
*Nset, nset=_PickedSet15, internal
 4,
*Nset, nset=_PickedSet16, internal, generate
 1,  4,  1
*Elset, elset=__PickedSurf8_E1, internal, instance=plaque-1
 67,
*Elset, elset=__PickedSurf8_E3, internal, instance=plaque-1
  83, 192
*Elset, elset=__PickedSurf8_E4, internal, instance=plaque-1
  84, 151
*Elset, elset=__PickedSurf8_E2, internal, instance=plaque-1
 185, 189, 191
*Surface, type=ELEMENT, name=_PickedSurf8, internal
__PickedSurf8_E1, E1
__PickedSurf8_E3, E3
__PickedSurf8_E4, E4
__PickedSurf8_E2, E2
*Elset, elset=__PickedSurf10_E3, internal, instance=plaque-1
 61, 63, 71
*Elset, elset=__PickedSurf10_E1, internal, instance=plaque-1
 66,
*Elset, elset=__PickedSurf10_E2, internal, instance=plaque-1
 160, 161, 164, 169
*Surface, type=ELEMENT, name=_PickedSurf10, internal
__PickedSurf10_E3, E3
__PickedSurf10_E1, E1
__PickedSurf10_E2, E2
*Elset, elset=__PickedSurf12_E3, internal, instance=plaque-1
 59,
*Elset, elset=__PickedSurf12_E2, internal, instance=plaque-1
 157, 158, 171, 178, 201
*Elset, elset=__PickedSurf12_E1, internal, instance=plaque-1
 167, 199
*Surface, type=ELEMENT, name=_PickedSurf12, internal
__PickedSurf12_E3, E3
__PickedSurf12_E2, E2
__PickedSurf12_E1, E1
*Elset, elset=__PickedSurf14_E3, internal, instance=plaque-1
  78,  93, 134
*Elset, elset=__PickedSurf14_E4, internal, instance=plaque-1
  89, 116
*Elset, elset=__PickedSurf14_E2, internal, instance=plaque-1
 177, 180, 181
*Surface, type=ELEMENT, name=_PickedSurf14, internal
__PickedSurf14_E3, E3
__PickedSurf14_E4, E4
__PickedSurf14_E2, E2
** Constraint: Constraint-1
*Coupling, constraint name=Constraint-1, ref node=_PickedSet9, surface=_PickedSurf8
*Kinematic
** Constraint: Constraint-2
*Coupling, constraint name=Constraint-2, ref node=_PickedSet11, surface=_PickedSurf10
*Kinematic
** Constraint: Constraint-3
*Coupling, constraint name=Constraint-3, ref node=_PickedSet13, surface=_PickedSurf12
*Kinematic
** Constraint: Constraint-4
*Coupling, constraint name=Constraint-4, ref node=_PickedSet15, surface=_PickedSurf14
*Kinematic
*End Assembly
** 
** MATERIALS
** 
*Material, name=cuivre
*Density
 8.96e-09,
*Elastic
124000., 0.36
** ----------------------------------------------------------------
** 
** STEP: analyse_modale
** 
*Step, name=analyse_modale, nlgeom=NO, perturbation
*Frequency, eigensolver=Lanczos, sim, acoustic coupling=on, normalization=mass
, , 500., , , 
** 
** BOUNDARY CONDITIONS
** 
** Name: blocage Type: Symmetry/Antisymmetry/Encastre
*Boundary
_PickedSet16, ENCASTRE
** 
** OUTPUT REQUESTS
** 
*Restart, write, frequency=0
** 
** FIELD OUTPUT: F-Output-1
** 
*Output, field
*Node Output, variable=PRESELECT
** 
** HISTORY OUTPUT: H-Output-1
** 
*Output, history
*Energy Output, variable=ALL
*End Step
