*Heading
** Job name: vibration Model name: Model-1
** Generated by: Abaqus/CAE 2025
*Preprint, echo=NO, model=NO, history=NO, contact=NO
**
** PARTS
**
*Part, name=plaque
*Node
      1,    342.17157,   57.8284264,           0.
      2,         341.,          55.,           0.
      3,    342.17157,   52.1715736,           0.
      4,         345.,          51.,           0.
      5,    347.82843,   52.1715736,           0.
      6,         349.,          55.,           0.
      7,    347.82843,   57.8284264,           0.
      8,         345.,          59.,           0.
      9,   52.1715736,   57.8284264,           0.
     10,          51.,          55.,           0.
     11,   52.1715736,   52.1715736,           0.
     12,          55.,          51.,           0.
     13,   57.8284264,   52.1715736,           0.
     14,          59.,          55.,           0.
     15,   57.8284264,   57.8284264,           0.
     16,          55.,          59.,           0.
     17,   57.8284264,    342.17157,           0.
     18,          59.,         345.,           0.
     19,   57.8284264,    347.82843,           0.
     20,          55.,         349.,           0.
** ... 1527 like lines cut
*Element, type=S3
 1,  224,  159,  195
 2, 1412,  322,  261
 3, 1404,  190,  153
 4, 1446,  394,  332
 5,  479,  418,  446
 6,  251, 1401,  198
 7,  184,  262,  200
 8, 1405,  248, 1314
 9, 1464,  478,  421
10,  291,  256,  235
11,  374, 1424, 1330
12,  419,  339,  359
13,  459,  447,  406
14, 1375,  354,  380
15,  312,  401,  381
16,  448,  383,  399
17,  550,  531,  476
18,  734,  651,  672
19,  610,  553,  580
20,  692,  649,  628
** ... 40 like lines cut
*Element, type=S4R
  61,  193,  145,  220,  243
  62,  195,  159,  135, 1380
  63, 1379,    5,  135,  159
  64,  167,    3,  114,  217
  65,  114,    3,    2,  144
  66, 1391,  227,  242,  199
  67,  120,   11,  121,  157
  68,  194,  120,  157,  223
  69,  122, 1370,   10,    9
  70,  122,    9,  123,  158
  71,  115,   23,  137,  165
  72,  137,   23,   22, 1371
  73,  152,   16,  124,  218
  74, 1440,  351, 1412,  265
  75,  238,  179,  200,  262
  76,  162,    1,    8,  138
  77,  155,   15,   14,  125
  78,   31,  166,  134,   32
  79,  308,  389,  426, 1455
  80, 1368,   12,   11,  120
** ... 1444 like lines cut
*Nset, nset=_PickedSet2, internal, generate
    1,  1547,     1
*Elset, elset=_PickedSet2, internal, generate
    1,  1524,     1
** Section: tole
*Shell Section, elset=_PickedSet2, material=acier
11., 5
*End Part
**  
**
** ASSEMBLY
**
*Assembly, name=Assembly
**  
*Instance, name=plaque-1, part=plaque
*End Instance
**  
*Node
      1,          55.,         345.,           0.
*Node
      2,          55.,          55.,           0.
*Node
      3,         345.,          55.,           0.
*Node
      4,         345.,         345.,           0.
*Nset, nset=_PickedSet9, internal
 1,
*Nset, nset=_PickedSet11, internal
 2,
*Nset, nset=_PickedSet13, internal
 3,
*Nset, nset=_PickedSet15, internal
 4,
*Nset, nset=_PickedSet16, internal, generate
 1,  4,  1
*Elset, elset=__PickedSurf8_E2, internal, instance=plaque-1
  72,  88, 159
*Elset, elset=__PickedSurf8_E3, internal, instance=plaque-1
 86, 92
*Elset, elset=__PickedSurf8_E4, internal, instance=plaque-1
  91, 127, 157
*Surface, type=ELEMENT, name=_PickedSurf8, internal
__PickedSurf8_E2, E2
__PickedSurf8_E3, E3
__PickedSurf8_E4, E4
*Elset, elset=__PickedSurf10_E3, internal, instance=plaque-1
 69,
*Elset, elset=__PickedSurf10_E2, internal, instance=plaque-1
  77,  80, 161, 165, 166
*Elset, elset=__PickedSurf10_E4, internal, instance=plaque-1
 145, 146
*Surface, type=ELEMENT, name=_PickedSurf10, internal
__PickedSurf10_E3, E3
__PickedSurf10_E2, E2
__PickedSurf10_E4, E4
*Elset, elset=__PickedSurf12_E2, internal, instance=plaque-1
  65,  76, 100, 155, 178, 181
*Elset, elset=__PickedSurf12_E4, internal, instance=plaque-1
 104,
*Elset, elset=__PickedSurf12_E1, internal, instance=plaque-1
 154,
*Surface, type=ELEMENT, name=_PickedSurf12, internal
__PickedSurf12_E2, E2
__PickedSurf12_E4, E4
__PickedSurf12_E1, E1
*Elset, elset=__PickedSurf14_E4, internal, instance=plaque-1
  78,  98, 135
*Elset, elset=__PickedSurf14_E1, internal, instance=plaque-1
 83,
*Elset, elset=__PickedSurf14_E2, internal, instance=plaque-1
  169,  171,  172, 1488
*Surface, type=ELEMENT, name=_PickedSurf14, internal
__PickedSurf14_E4, E4
__PickedSurf14_E1, E1
__PickedSurf14_E2, E2
** Constraint: Constraint-1
*Coupling, constraint name=Constraint-1, ref node=_PickedSet9, surface=_PickedSurf8
*Kinematic
** Constraint: Constraint-2
*Coupling, constraint name=Constraint-2, ref node=_PickedSet11, surface=_PickedSurf10
*Kinematic
** Constraint: Constraint-3
*Coupling, constraint name=Constraint-3, ref node=_PickedSet13, surface=_PickedSurf12
*Kinematic
** Constraint: Constraint-4
*Coupling, constraint name=Constraint-4, ref node=_PickedSet15, surface=_PickedSurf14
*Kinematic
*End Assembly
** 
** MATERIALS
** 
*Material, name=acier
*Density
 7.86e-09,
*Elastic
210000., 0.26
** ----------------------------------------------------------------
** 
** STEP: analyse_modale
** 
*Step, name=analyse_modale, nlgeom=NO, perturbation
*Frequency, eigensolver=Lanczos, sim, acoustic coupling=on, normalization=mass
, , 500., , , 
** 
** BOUNDARY CONDITIONS
** 
** Name: blocage Type: Symmetry/Antisymmetry/Encastre
*Boundary
_PickedSet16, ENCASTRE
** 
** OUTPUT REQUESTS
** 
*Restart, write, frequency=0
** 
** FIELD OUTPUT: F-Output-1
** 
*Output, field
*Node Output, variable=PRESELECT
** 
** HISTORY OUTPUT: H-Output-1
** 
*Output, history
*Energy Output, variable=ALL
*End Step
