*Heading
** Job name: vibration Model name: Model-1
** Generated by: Abaqus/CAE 2025
*Preprint, echo=NO, model=NO, history=NO, contact=NO
**
** PARTS
**
*Part, name=plaque
*Node
      1,    332.17157,   67.8284302,           0.
      2,         331.,          65.,           0.
      3,    332.17157,   62.1715736,           0.
      4,         335.,          61.,           0.
      5,    337.82843,   62.1715736,           0.
      6,         339.,          65.,           0.
      7,    337.82843,   67.8284302,           0.
      8,         335.,          69.,           0.
      9,   62.1715736,   67.8284302,           0.
     10,          61.,          65.,           0.
     11,   62.1715736,   62.1715736,           0.
     12,          65.,          61.,           0.
     13,   67.8284302,   62.1715736,           0.
     14,          69.,          65.,           0.
     15,   67.8284302,   67.8284302,           0.
     16,          65.,          69.,           0.
     17,   67.8284302,    332.17157,           0.
     18,          69.,         335.,           0.
     19,   67.8284302,    337.82843,           0.
     20,          65.,         339.,           0.
** ... 1877 like lines cut
*Element, type=S3
 1,  229,  131,  166
 2,  217,  160,  187
 3,  223,  251,  162
 4,  506,  504,  465
 5,  239,  184,  210
 6,  118,  204,  147
 7, 1666,  381,  302
 8,  252,  275,  186
 9,  132,  254,  166
10,  409,  300,  327
11, 1646,  263,  208
12, 1677,  355,  283
13,  248,  196,  221
14,  229,  311,  195
15,  425,  391,  353
16,  349,  286, 1683
17,  299, 1688,  333
18,  308, 1714,  347
19,  456, 1637,  390
20, 1705,  416,  344
** ... 44 like lines cut
*Element, type=S4R
  65,  113,    6,  116,  145
  66,  170,  136,  200,  227
  67,  136,  170,    5,    4
  68,  137,    3,  117,  172
  69,  121,   12,  124,  155
  70,  120,  157,   10,    9
  71,  226,  125,  157,  257
  72,  156,   16,  122,  209
  73,  118,   23,  138,  171
  74,  118,  147,   24,   23
  75,  122,   16,   15,  159
  76,  115,   17,   24,  147
  77,  402,  329,  365,  433
  78,  238,  210,  179, 1647
  79,  140,  158,    1,    8
  80,  123,  159,   15,   14
  81,  176,  123,  154,  211
  82,  336,  369,  303, 1645
  83,  121,  163,   13,   12
  84,  193,  163,  121,  155
** ... 1792 like lines cut
*Nset, nset=_PickedSet2, internal, generate
    1,  1897,     1
*Elset, elset=_PickedSet2, internal, generate
    1,  1876,     1
** Section: tole
*Shell Section, elset=_PickedSet2, material=cuivre
18., 5
*End Part
**  
**
** ASSEMBLY
**
*Assembly, name=Assembly
**  
*Instance, name=plaque-1, part=plaque
*End Instance
**  
*Node
      1,          65.,         335.,           0.
*Node
      2,          65.,          65.,           0.
*Node
      3,         335.,          65.,           0.
*Node
      4,         335.,         335.,           0.
*Nset, nset=_PickedSet9, internal
 1,
*Nset, nset=_PickedSet11, internal
 2,
*Nset, nset=_PickedSet13, internal
 3,
*Nset, nset=_PickedSet15, internal
 4,
*Nset, nset=_PickedSet16, internal, generate
 1,  4,  1
*Elset, elset=__PickedSurf8_E3, internal, instance=plaque-1
 74, 91, 95
*Elset, elset=__PickedSurf8_E2, internal, instance=plaque-1
  76, 156, 158, 173, 176
*Surface, type=ELEMENT, name=_PickedSurf8, internal
__PickedSurf8_E3, E3
__PickedSurf8_E2, E2
*Elset, elset=__PickedSurf10_E3, internal, instance=plaque-1
 70, 80, 83
*Elset, elset=__PickedSurf10_E2, internal, instance=plaque-1
  75, 145
*Elset, elset=__PickedSurf10_E4, internal, instance=plaque-1
 113, 146, 149
*Surface, type=ELEMENT, name=_PickedSurf10, internal
__PickedSurf10_E3, E3
__PickedSurf10_E2, E2
__PickedSurf10_E4, E4
*Elset, elset=__PickedSurf12_E3, internal, instance=plaque-1
  67,  79, 104
*Elset, elset=__PickedSurf12_E2, internal, instance=plaque-1
  86, 174
*Elset, elset=__PickedSurf12_E4, internal, instance=plaque-1
 107, 109
*Elset, elset=__PickedSurf12_E1, internal, instance=plaque-1
 170,
*Surface, type=ELEMENT, name=_PickedSurf12, internal
__PickedSurf12_E3, E3
__PickedSurf12_E2, E2
__PickedSurf12_E4, E4
__PickedSurf12_E1, E1
*Elset, elset=__PickedSurf14_E1, internal, instance=plaque-1
 88,
*Elset, elset=__PickedSurf14_E3, internal, instance=plaque-1, generate
  99,  103,    2
*Elset, elset=__PickedSurf14_E4, internal, instance=plaque-1
 123, 125
*Elset, elset=__PickedSurf14_E2, internal, instance=plaque-1
 164, 166
*Surface, type=ELEMENT, name=_PickedSurf14, internal
__PickedSurf14_E1, E1
__PickedSurf14_E3, E3
__PickedSurf14_E4, E4
__PickedSurf14_E2, E2
** Constraint: Constraint-1
*Coupling, constraint name=Constraint-1, ref node=_PickedSet9, surface=_PickedSurf8
*Kinematic
** Constraint: Constraint-2
*Coupling, constraint name=Constraint-2, ref node=_PickedSet11, surface=_PickedSurf10
*Kinematic
** Constraint: Constraint-3
*Coupling, constraint name=Constraint-3, ref node=_PickedSet13, surface=_PickedSurf12
*Kinematic
** Constraint: Constraint-4
*Coupling, constraint name=Constraint-4, ref node=_PickedSet15, surface=_PickedSurf14
*Kinematic
*End Assembly
** 
** MATERIALS
** 
*Material, name=cuivre
*Density
 8.96e-09,
*Elastic
124000., 0.36
** ----------------------------------------------------------------
** 
** STEP: analyse_modale
** 
*Step, name=analyse_modale, nlgeom=NO, perturbation
*Frequency, eigensolver=Lanczos, sim, acoustic coupling=on, normalization=mass
, , 500., , , 
** 
** BOUNDARY CONDITIONS
** 
** Name: blocage Type: Symmetry/Antisymmetry/Encastre
*Boundary
_PickedSet16, ENCASTRE
** 
** OUTPUT REQUESTS
** 
*Restart, write, frequency=0
** 
** FIELD OUTPUT: F-Output-1
** 
*Output, field
*Node Output, variable=PRESELECT
** 
** HISTORY OUTPUT: H-Output-1
** 
*Output, history
*Energy Output, variable=ALL
*End Step
