*Heading
** Job name: vibration Model name: Model-1
** Generated by: Abaqus/CAE 2025
*Preprint, echo=NO, model=NO, history=NO, contact=NO
**
** PARTS
**
*Part, name=plaque
*Node
      1,    302.17157,   97.8284302,           0.
      2,         301.,          95.,           0.
      3,    302.17157,   92.1715698,           0.
      4,         305.,          91.,           0.
      5,    307.82843,   92.1715698,           0.
      6,         309.,          95.,           0.
      7,    307.82843,   97.8284302,           0.
      8,         305.,          99.,           0.
      9,   92.1715698,   97.8284302,           0.
     10,          91.,          95.,           0.
     11,   92.1715698,   92.1715698,           0.
     12,          95.,          91.,           0.
     13,   97.8284302,   92.1715698,           0.
     14,          99.,          95.,           0.
     15,   97.8284302,   97.8284302,           0.
     16,          95.,          99.,           0.
     17,   97.8284302,    302.17157,           0.
     18,          99.,         305.,           0.
     19,   97.8284302,    307.82843,           0.
     20,          95.,         309.,           0.
** ... 3452 like lines cut
*Element, type=S3
  1,  144,  254,  165
  2,  333,  242,  311
  3,  170,  225,  134
  4, 2980,  318,  258
  5,  491,  490,  368
  6,  317, 3000,  363
  7, 2999,  369,  294
  8, 2970,  284,  216
  9,  424,  323,  369
 10, 3065,  356,  408
 11, 3014,  319,  249
 12,  403,  466,  312
 13, 3080,  412,  471
 14, 3005, 3056,  238
 15, 3056,  377,  302
 16, 3009,  310,  247
 17,  602,  467,  537
 18,  438,  305,  396
 19,  455, 3092,  433
 20, 3042,  408,  354
** ... 80 like lines cut
*Element, type=S4R
 101,  192,  214,  286,  252
 102,  113,    5,  137,  160
 103,  138,    3,  114,  167
 104,  114,    3,    2,  151
 105,  260,  201,  231,  324
 106,  122,  163,   11,   10
 107,   54, 2932, 2913,   55
 108,  122,   10,  123,  157
 109,  124,  164,    9,   16
 110,  141,  166,  203,  172
 111,  164,  218,  198,  123
 112,  144,   23,   22,  172
 113,   16,  125,  158,  124
 114,  115,  165,  215,  182
 115,  706, 3124,  448,  648
 116,  637,  763,  693,  577
 117,  770,  629,  695,  830
 118,  116,  151,    2,    1
 119,  127,  156,   14,   13
 120,  127,   13,  128,  161
** ... 3349 like lines cut
*Nset, nset=_PickedSet2, internal, generate
    1,  3472,     1
*Elset, elset=_PickedSet2, internal, generate
    1,  3469,     1
** Section: tole
*Shell Section, elset=_PickedSet2, material=aluminium
10., 5
*End Part
**  
**
** ASSEMBLY
**
*Assembly, name=Assembly
**  
*Instance, name=plaque-1, part=plaque
*End Instance
**  
*Node
      1,          95.,         305.,           0.
*Node
      2,          95.,          95.,           0.
*Node
      3,         305.,          95.,           0.
*Node
      4,         305.,         305.,           0.
*Nset, nset=_PickedSet9, internal
 1,
*Nset, nset=_PickedSet11, internal
 2,
*Nset, nset=_PickedSet13, internal
 3,
*Nset, nset=_PickedSet15, internal
 4,
*Nset, nset=_PickedSet16, internal, generate
 1,  4,  1
*Elset, elset=__PickedSurf8_E2, internal, instance=plaque-1
 112, 209, 211
*Elset, elset=__PickedSurf8_E3, internal, instance=plaque-1
 127, 135, 200
*Elset, elset=__PickedSurf8_E4, internal, instance=plaque-1
 180,
*Elset, elset=__PickedSurf8_E1, internal, instance=plaque-1
 231,
*Surface, type=ELEMENT, name=_PickedSurf8, internal
__PickedSurf8_E2, E2
__PickedSurf8_E3, E3
__PickedSurf8_E4, E4
__PickedSurf8_E1, E1
*Elset, elset=__PickedSurf10_E3, internal, instance=plaque-1
 106, 109, 119, 208
*Elset, elset=__PickedSurf10_E4, internal, instance=plaque-1
 195,
*Elset, elset=__PickedSurf10_E2, internal, instance=plaque-1, generate
 213,  219,    3
*Surface, type=ELEMENT, name=_PickedSurf10, internal
__PickedSurf10_E3, E3
__PickedSurf10_E4, E4
__PickedSurf10_E2, E2
*Elset, elset=__PickedSurf12_E2, internal, instance=plaque-1
 104, 204, 207
*Elset, elset=__PickedSurf12_E3, internal, instance=plaque-1
 118, 151, 169, 171
*Elset, elset=__PickedSurf12_E4, internal, instance=plaque-1
 122,
*Surface, type=ELEMENT, name=_PickedSurf12, internal
__PickedSurf12_E2, E2
__PickedSurf12_E3, E3
__PickedSurf12_E4, E4
*Elset, elset=__PickedSurf14_E3, internal, instance=plaque-1
 125, 140, 142
*Elset, elset=__PickedSurf14_E4, internal, instance=plaque-1
 126, 164
*Elset, elset=__PickedSurf14_E2, internal, instance=plaque-1
 221, 224, 225
*Surface, type=ELEMENT, name=_PickedSurf14, internal
__PickedSurf14_E3, E3
__PickedSurf14_E4, E4
__PickedSurf14_E2, E2
** Constraint: Constraint-1
*Coupling, constraint name=Constraint-1, ref node=_PickedSet9, surface=_PickedSurf8
*Kinematic
** Constraint: Constraint-2
*Coupling, constraint name=Constraint-2, ref node=_PickedSet11, surface=_PickedSurf10
*Kinematic
** Constraint: Constraint-3
*Coupling, constraint name=Constraint-3, ref node=_PickedSet13, surface=_PickedSurf12
*Kinematic
** Constraint: Constraint-4
*Coupling, constraint name=Constraint-4, ref node=_PickedSet15, surface=_PickedSurf14
*Kinematic
*End Assembly
** 
** MATERIALS
** 
*Material, name=aluminium
*Density
 2.7e-09,
*Elastic
69000., 0.33
** ----------------------------------------------------------------
** 
** STEP: analyse_modale
** 
*Step, name=analyse_modale, nlgeom=NO, perturbation
*Frequency, eigensolver=Lanczos, sim, acoustic coupling=on, normalization=mass
, , 500., , , 
** 
** BOUNDARY CONDITIONS
** 
** Name: blocage Type: Symmetry/Antisymmetry/Encastre
*Boundary
_PickedSet16, ENCASTRE
** 
** OUTPUT REQUESTS
** 
*Restart, write, frequency=0
** 
** FIELD OUTPUT: F-Output-1
** 
*Output, field
*Node Output, variable=PRESELECT
** 
** HISTORY OUTPUT: H-Output-1
** 
*Output, history
*Energy Output, variable=ALL
*End Step
