*Heading
** Job name: vibration Model name: Model-1
** Generated by: Abaqus/CAE 2025
*Preprint, echo=NO, model=NO, history=NO, contact=NO
**
** PARTS
**
*Part, name=plaque
*Node
      1,   226.625198,   173.374802,           0.
      2,   225.453629,   170.546371,           0.
      3,   226.625198,   167.717941,           0.
      4,   229.453629,   166.546371,           0.
      5,   232.282059,   167.717941,           0.
      6,   233.453629,   170.546371,           0.
      7,   232.282059,   173.374802,           0.
      8,   229.453629,   174.546371,           0.
      9,   167.717941,   173.374802,           0.
     10,   166.546371,   170.546371,           0.
     11,   167.717941,   167.717941,           0.
     12,   170.546371,   166.546371,           0.
     13,   173.374802,   167.717941,           0.
     14,   174.546371,   170.546371,           0.
     15,   173.374802,   173.374802,           0.
     16,   170.546371,   174.546371,           0.
     17,   173.374802,   226.625198,           0.
     18,   174.546371,   229.453629,           0.
     19,   173.374802,   232.282059,           0.
     20,   170.546371,   233.453629,           0.
** ... 2022 like lines cut
*Element, type=S3
 1,  189,  143,  160
 2,  136,  236,  168
 3,  525, 1821,  498
 4,  194,  126,  172
 5,  275,  199,  233
 6,  364,  477,  273
 7, 1822,  304,  521
 8, 1785,  308,  222
 9, 1817,  406,  297
10,  368,  426,  281
11, 1978,  681,  759
12, 1871,  503,  590
13,  649,  357,  448
14, 1842, 1882,  410
15, 1918, 1112,  997
16, 1902, 1877,  535
17,  563,  428,  489
18, 1927,  681,  552
19,  794,  626,  708
20, 1110,  994, 1038
** ... 48 like lines cut
*Element, type=S4R
  69,  257,  196,  234,  344
  70,  274,  481,  313,  275
  71,  118,  161,    5,    4
  72,   13,  126,  149,  125
  73,  201,  232,  317,  283
  74,  120,  163,   11,   10
  75, 1556, 1778, 1653, 1682
  76,   10,  121,  170,  120
  77,    9,   16,  141,  175
  78,  122,   23,   22,  171
  79,   16,  113,  159,  141
  80,  123,   15,   14,  154
  81,  184,  212,  154,  125
  82,  381,  288,  325,  443
  83,  147,   15,  123,  182
  84,  114,  150,    1,    8
  85,  125,  154,   14,   13
  86,  172,   12,  119, 1777
  87,  129,  155, 1793,  198
  88,    2,  124,  155,  129
** ... 1935 like lines cut
*Nset, nset=_PickedSet2, internal, generate
    1,  2042,     1
*Elset, elset=_PickedSet2, internal, generate
    1,  2023,     1
** Section: tole
*Shell Section, elset=_PickedSet2, material=acier
0.5, 5
*End Part
**  
**
** ASSEMBLY
**
*Assembly, name=Assembly
**  
*Instance, name=plaque-1, part=plaque
*End Instance
**  
*Node
      1,   170.546371,   229.453629,           0.
*Node
      2,   170.546371,   170.546371,           0.
*Node
      3,   229.453629,   170.546371,           0.
*Node
      4,   229.453629,   229.453629,           0.
*Nset, nset=_PickedSet9, internal
 1,
*Nset, nset=_PickedSet11, internal
 2,
*Nset, nset=_PickedSet13, internal
 3,
*Nset, nset=_PickedSet15, internal
 4,
*Nset, nset=_PickedSet16, internal, generate
 1,  4,  1
*Elset, elset=__PickedSurf8_E2, internal, instance=plaque-1
  78, 176, 201, 203, 204
*Elset, elset=__PickedSurf8_E3, internal, instance=plaque-1
 92, 99
*Elset, elset=__PickedSurf8_E1, internal, instance=plaque-1
 185,
*Surface, type=ELEMENT, name=_PickedSurf8, internal
__PickedSurf8_E2, E2
__PickedSurf8_E3, E3
__PickedSurf8_E1, E1
*Elset, elset=__PickedSurf10_E3, internal, instance=plaque-1
 74, 85
*Elset, elset=__PickedSurf10_E1, internal, instance=plaque-1
 77,
*Elset, elset=__PickedSurf10_E2, internal, instance=plaque-1
  80, 174, 181, 182, 190
*Surface, type=ELEMENT, name=_PickedSurf10, internal
__PickedSurf10_E3, E3
__PickedSurf10_E1, E1
__PickedSurf10_E2, E2
*Elset, elset=__PickedSurf12_E3, internal, instance=plaque-1
  71,  84, 107, 191
*Elset, elset=__PickedSurf12_E2, internal, instance=plaque-1
 175, 179, 180, 188
*Surface, type=ELEMENT, name=_PickedSurf12, internal
__PickedSurf12_E3, E3
__PickedSurf12_E2, E2
*Elset, elset=__PickedSurf14_E3, internal, instance=plaque-1
  90,  91, 101, 129
*Elset, elset=__PickedSurf14_E2, internal, instance=plaque-1
 177, 178, 194, 199
*Surface, type=ELEMENT, name=_PickedSurf14, internal
__PickedSurf14_E3, E3
__PickedSurf14_E2, E2
** Constraint: Constraint-1
*Coupling, constraint name=Constraint-1, ref node=_PickedSet9, surface=_PickedSurf8
*Kinematic
** Constraint: Constraint-2
*Coupling, constraint name=Constraint-2, ref node=_PickedSet11, surface=_PickedSurf10
*Kinematic
** Constraint: Constraint-3
*Coupling, constraint name=Constraint-3, ref node=_PickedSet13, surface=_PickedSurf12
*Kinematic
** Constraint: Constraint-4
*Coupling, constraint name=Constraint-4, ref node=_PickedSet15, surface=_PickedSurf14
*Kinematic
*End Assembly
** 
** MATERIALS
** 
*Material, name=acier
*Density
 7.86e-09,
*Elastic
210000., 0.26
** ----------------------------------------------------------------
** 
** STEP: analyse_modale
** 
*Step, name=analyse_modale, nlgeom=NO, perturbation
*Frequency, eigensolver=Lanczos, sim, acoustic coupling=on, normalization=mass
, , 500., , , 
** 
** BOUNDARY CONDITIONS
** 
** Name: blocage Type: Symmetry/Antisymmetry/Encastre
*Boundary
_PickedSet16, ENCASTRE
** 
** OUTPUT REQUESTS
** 
*Restart, write, frequency=0
** 
** FIELD OUTPUT: F-Output-1
** 
*Output, field
*Node Output, variable=PRESELECT
** 
** HISTORY OUTPUT: H-Output-1
** 
*Output, history
*Energy Output, variable=ALL
*End Step
