*Heading
** Job name: vibration Model name: Model-1
** Generated by: Abaqus/CAE 2025
*Preprint, echo=NO, model=NO, history=NO, contact=NO
**
** PARTS
**
*Part, name=plaque
*Node
      1,   302.100769,   97.8992386,           0.
      2,   300.929199,   95.0708084,           0.
      3,   302.100769,   92.2423782,           0.
      4,   304.929199,   91.0708084,           0.
      5,   307.757629,   92.2423782,           0.
      6,   308.929199,   95.0708084,           0.
      7,   307.757629,   97.8992386,           0.
      8,   304.929199,   99.0708084,           0.
      9,   92.2423782,   97.8992386,           0.
     10,   91.0708084,   95.0708084,           0.
     11,   92.2423782,   92.2423782,           0.
     12,   95.0708084,   91.0708084,           0.
     13,   97.8992386,   92.2423782,           0.
     14,   99.0708084,   95.0708084,           0.
     15,   97.8992386,   97.8992386,           0.
     16,   95.0708084,   99.0708084,           0.
     17,   97.8992386,   302.100769,           0.
     18,   99.0708084,   304.929199,           0.
     19,   97.8992386,   307.757629,           0.
     20,   95.0708084,   308.929199,           0.
** ... 3475 like lines cut
*Element, type=S3
  1,  118,  230,  153
  2,  203,  141,  170
  3,  199,  293,  228
  4,  283,  425,  323
  5, 2952,  377,  299
  6,  368,  331,  291
  7, 2935,  338,  238
  8,  487,  410,  324
  9,  493,  332, 2945
 10, 2950,  344,  270
 11,  495,  490,  371
 12,  758,  552,  687
 13, 2988,  381,  303
 14,  318, 3017, 2971
 15, 2997,  516, 3059
 16,  749,  555,  624
 17, 3001, 2973,  497
 18,  548,  472,  410
 19,  679,  496,  564
 20,  590,  582,  517
** ... 106 like lines cut
*Element, type=S4R
 127,  118,  162,  256,  230
 128,  323,  256,  223,  283
 129,  118,    5,  136,  162
 130,  137,    3,  119,  167
 131,  119,    3,    2,  154
 132,  257,  200,  232,  328
 133,  125,  165,   11,   10
 134, 2849, 2883, 2898, 2846
 135,  125,   10,  126,  160
 136,   16,  117,  174,  142
 137,  166,  203,  170,  139
 138,  142,  173,    9,   16
 139,  116,  149,   24,   23
 140,  191,  249, 2943,  218
 141,  442,  523, 2994,  457
 142, 2980,  390, 3019,  338
 143,  114,  175,    8,    7
 144,  219,  159,  183, 2925
 145,  120,  154,    2,    1
 146,  159,  128,  163,  183
** ... 3359 like lines cut
*Nset, nset=_PickedSet2, internal, generate
    1,  3495,     1
*Elset, elset=_PickedSet2, internal, generate
    1,  3505,     1
** Section: tole
*Shell Section, elset=_PickedSet2, material=acier
0.5, 5
*End Part
**  
**
** ASSEMBLY
**
*Assembly, name=Assembly
**  
*Instance, name=plaque-1, part=plaque
*End Instance
**  
*Node
      1,   95.0708084,   304.929199,           0.
*Node
      2,   95.0708084,   95.0708084,           0.
*Node
      3,   304.929199,   95.0708084,           0.
*Node
      4,   304.929199,   304.929199,           0.
*Nset, nset=_PickedSet9, internal
 1,
*Nset, nset=_PickedSet11, internal
 2,
*Nset, nset=_PickedSet13, internal
 3,
*Nset, nset=_PickedSet15, internal
 4,
*Nset, nset=_PickedSet16, internal, generate
 1,  4,  1
*Elset, elset=__PickedSurf8_E3, internal, instance=plaque-1
 139, 154, 253
*Elset, elset=__PickedSurf8_E2, internal, instance=plaque-1
 162, 231, 239
*Elset, elset=__PickedSurf8_E4, internal, instance=plaque-1
 203,
*Elset, elset=__PickedSurf8_E1, internal, instance=plaque-1
 252,
*Surface, type=ELEMENT, name=_PickedSurf8, internal
__PickedSurf8_E3, E3
__PickedSurf8_E2, E2
__PickedSurf8_E4, E4
__PickedSurf8_E1, E1
*Elset, elset=__PickedSurf10_E3, internal, instance=plaque-1
 133, 138
*Elset, elset=__PickedSurf10_E4, internal, instance=plaque-1
 220,
*Elset, elset=__PickedSurf10_E2, internal, instance=plaque-1
 233, 241, 245
*Elset, elset=__PickedSurf10_E1, internal, instance=plaque-1
 234, 244
*Surface, type=ELEMENT, name=_PickedSurf10, internal
__PickedSurf10_E3, E3
__PickedSurf10_E4, E4
__PickedSurf10_E2, E2
__PickedSurf10_E1, E1
*Elset, elset=__PickedSurf12_E2, internal, instance=plaque-1
 131, 171, 235, 237
*Elset, elset=__PickedSurf12_E3, internal, instance=plaque-1
 143, 145, 175, 195
*Surface, type=ELEMENT, name=_PickedSurf12, internal
__PickedSurf12_E2, E2
__PickedSurf12_E3, E3
*Elset, elset=__PickedSurf14_E3, internal, instance=plaque-1
 152, 190, 211
*Elset, elset=__PickedSurf14_E4, internal, instance=plaque-1
 153,
*Elset, elset=__PickedSurf14_E2, internal, instance=plaque-1
 169, 247, 249
*Elset, elset=__PickedSurf14_E1, internal, instance=plaque-1
 228,
*Surface, type=ELEMENT, name=_PickedSurf14, internal
__PickedSurf14_E3, E3
__PickedSurf14_E4, E4
__PickedSurf14_E2, E2
__PickedSurf14_E1, E1
** Constraint: Constraint-1
*Coupling, constraint name=Constraint-1, ref node=_PickedSet9, surface=_PickedSurf8
*Kinematic
** Constraint: Constraint-2
*Coupling, constraint name=Constraint-2, ref node=_PickedSet11, surface=_PickedSurf10
*Kinematic
** Constraint: Constraint-3
*Coupling, constraint name=Constraint-3, ref node=_PickedSet13, surface=_PickedSurf12
*Kinematic
** Constraint: Constraint-4
*Coupling, constraint name=Constraint-4, ref node=_PickedSet15, surface=_PickedSurf14
*Kinematic
*End Assembly
** 
** MATERIALS
** 
*Material, name=acier
*Density
 7.86e-09,
*Elastic
210000., 0.26
** ----------------------------------------------------------------
** 
** STEP: analyse_modale
** 
*Step, name=analyse_modale, nlgeom=NO, perturbation
*Frequency, eigensolver=Lanczos, sim, acoustic coupling=on, normalization=mass
, , 500., , , 
** 
** BOUNDARY CONDITIONS
** 
** Name: blocage Type: Symmetry/Antisymmetry/Encastre
*Boundary
_PickedSet16, ENCASTRE
** 
** OUTPUT REQUESTS
** 
*Restart, write, frequency=0
** 
** FIELD OUTPUT: F-Output-1
** 
*Output, field
*Node Output, variable=PRESELECT
** 
** HISTORY OUTPUT: H-Output-1
** 
*Output, history
*Energy Output, variable=ALL
*End Step
