*Heading
** Job name: vibration Model name: Model-1
** Generated by: Abaqus/CAE 2025
*Preprint, echo=NO, model=NO, history=NO, contact=NO
**
** PARTS
**
*Part, name=plaque
*Node
      1,   223.442535,   176.557465,           0.
      2,   222.270966,   173.729034,           0.
      3,   223.442535,   170.900604,           0.
      4,   226.270966,   169.729034,           0.
      5,   229.099396,   170.900604,           0.
      6,   230.270966,   173.729034,           0.
      7,   229.099396,   176.557465,           0.
      8,   226.270966,   177.729034,           0.
      9,   170.900604,   176.557465,           0.
     10,   169.729034,   173.729034,           0.
     11,   170.900604,   170.900604,           0.
     12,   173.729034,   169.729034,           0.
     13,   176.557465,   170.900604,           0.
     14,   177.729034,   173.729034,           0.
     15,   176.557465,   176.557465,           0.
     16,   173.729034,   177.729034,           0.
     17,   176.557465,   223.442535,           0.
     18,   177.729034,   226.270966,           0.
     19,   176.557465,   229.099396,           0.
     20,   173.729034,   230.270966,           0.
** ... 1852 like lines cut
*Element, type=S3
 1, 1664,  248,  171
 2,  200,  141,  157
 3, 1663,  253,  164
 4, 1662,  255,  165
 5,  276,  196,  253
 6,  240,  291,  161
 7,  294,  209,  237
 8, 1696,  610,  496
 9,  700,  534,  607
10, 1764,  492,  582
11,  819,  557,  624
12,  803,  731,  666
13,  558,  467,  404
14,  503,  493,  442
15,  585,  689,  521
16,  714,  549,  639
17,  646,  663,  745
18,  758, 1776,  709
19,  883, 1735,  829
20,  844,  838,  902
** ... 50 like lines cut
*Element, type=S4R
  71,  326,  382,  270,  241
  72,  202,  117,  168,  246
  73,  118,  168,    5,    4
  74,   13,  126,  152,  125
  75,  393,  287,  340,  460
  76,  120,  170,   11,   10
  77, 1560, 1453,   55,   54
  78,   10,  121,  163,  120
  79,    9,   16,  141,  174
  80,  122,   23,   22,  164
  81,   16,  113,  157,  141
  82,   15,   14,  123,  144
  83,  148,  189,  123,   14
  84,  551,  640,  473,  416
  85,  114,  153,    1,    8
  86,  125,  148,   14,   13
  87,  165,   12,  119, 1662
  88,  201,  129,  149,  233
  89,  238,  158,  181,  263
  90,    2,  124,  149,  129
** ... 1764 like lines cut
*Nset, nset=_PickedSet2, internal, generate
    1,  1872,     1
*Elset, elset=_PickedSet2, internal, generate
    1,  1854,     1
** Section: tole
*Shell Section, elset=_PickedSet2, material=acier
0.5, 5
*End Part
**  
**
** ASSEMBLY
**
*Assembly, name=Assembly
**  
*Instance, name=plaque-1, part=plaque
*End Instance
**  
*Node
      1,   173.729034,   226.270966,           0.
*Node
      2,   173.729034,   173.729034,           0.
*Node
      3,   226.270966,   173.729034,           0.
*Node
      4,   226.270966,   226.270966,           0.
*Nset, nset=_PickedSet9, internal
 1,
*Nset, nset=_PickedSet11, internal
 2,
*Nset, nset=_PickedSet13, internal
 3,
*Nset, nset=_PickedSet15, internal
 4,
*Nset, nset=_PickedSet16, internal, generate
 1,  4,  1
*Elset, elset=__PickedSurf8_E2, internal, instance=plaque-1
  80, 200, 201, 205
*Elset, elset=__PickedSurf8_E3, internal, instance=plaque-1
 100,
*Elset, elset=__PickedSurf8_E4, internal, instance=plaque-1
 166,
*Elset, elset=__PickedSurf8_E1, internal, instance=plaque-1
 176, 203
*Surface, type=ELEMENT, name=_PickedSurf8, internal
__PickedSurf8_E2, E2
__PickedSurf8_E3, E3
__PickedSurf8_E4, E4
__PickedSurf8_E1, E1
*Elset, elset=__PickedSurf10_E3, internal, instance=plaque-1
 76, 86
*Elset, elset=__PickedSurf10_E1, internal, instance=plaque-1
 79, 82
*Elset, elset=__PickedSurf10_E2, internal, instance=plaque-1
 174, 182, 183, 190
*Surface, type=ELEMENT, name=_PickedSurf10, internal
__PickedSurf10_E3, E3
__PickedSurf10_E1, E1
__PickedSurf10_E2, E2
*Elset, elset=__PickedSurf12_E3, internal, instance=plaque-1
  73,  85, 108, 191
*Elset, elset=__PickedSurf12_E2, internal, instance=plaque-1
 175, 179, 180, 188
*Surface, type=ELEMENT, name=_PickedSurf12, internal
__PickedSurf12_E3, E3
__PickedSurf12_E2, E2
*Elset, elset=__PickedSurf14_E3, internal, instance=plaque-1
  93, 102, 128
*Elset, elset=__PickedSurf14_E4, internal, instance=plaque-1
 149,
*Elset, elset=__PickedSurf14_E2, internal, instance=plaque-1
 177, 198
*Elset, elset=__PickedSurf14_E1, internal, instance=plaque-1
 178, 195
*Surface, type=ELEMENT, name=_PickedSurf14, internal
__PickedSurf14_E3, E3
__PickedSurf14_E4, E4
__PickedSurf14_E2, E2
__PickedSurf14_E1, E1
** Constraint: Constraint-1
*Coupling, constraint name=Constraint-1, ref node=_PickedSet9, surface=_PickedSurf8
*Kinematic
** Constraint: Constraint-2
*Coupling, constraint name=Constraint-2, ref node=_PickedSet11, surface=_PickedSurf10
*Kinematic
** Constraint: Constraint-3
*Coupling, constraint name=Constraint-3, ref node=_PickedSet13, surface=_PickedSurf12
*Kinematic
** Constraint: Constraint-4
*Coupling, constraint name=Constraint-4, ref node=_PickedSet15, surface=_PickedSurf14
*Kinematic
*End Assembly
** 
** MATERIALS
** 
*Material, name=acier
*Density
 7.86e-09,
*Elastic
210000., 0.26
** ----------------------------------------------------------------
** 
** STEP: analyse_modale
** 
*Step, name=analyse_modale, nlgeom=NO, perturbation
*Frequency, eigensolver=Lanczos, sim, acoustic coupling=on, normalization=mass
, , 500., , , 
** 
** BOUNDARY CONDITIONS
** 
** Name: blocage Type: Symmetry/Antisymmetry/Encastre
*Boundary
_PickedSet16, ENCASTRE
** 
** OUTPUT REQUESTS
** 
*Restart, write, frequency=0
** 
** FIELD OUTPUT: F-Output-1
** 
*Output, field
*Node Output, variable=PRESELECT
** 
** HISTORY OUTPUT: H-Output-1
** 
*Output, history
*Energy Output, variable=ALL
*End Step
