*Heading
** Job name: vibration Model name: Model-1
** Generated by: Abaqus/CAE 2025
*Preprint, echo=NO, model=NO, history=NO, contact=NO
**
** PARTS
**
*Part, name=plaque
*Node
      1,   287.356903,   112.643082,           0.
      2,   286.185333,   109.814659,           0.
      3,   287.356903,   106.986229,           0.
      4,   290.185333,   105.814659,           0.
      5,   293.013763,   106.986229,           0.
      6,   294.185333,   109.814659,           0.
      7,   293.013763,   112.643082,           0.
      8,   290.185333,   113.814659,           0.
      9,   106.986229,   112.643082,           0.
     10,   105.814659,   109.814659,           0.
     11,   106.986229,   106.986229,           0.
     12,   109.814659,   105.814659,           0.
     13,   112.643082,   106.986229,           0.
     14,   113.814659,   109.814659,           0.
     15,   112.643082,   112.643082,           0.
     16,   109.814659,   113.814659,           0.
     17,   112.643082,   287.356903,           0.
     18,   113.814659,   290.185333,           0.
     19,   112.643082,   293.013763,           0.
     20,   109.814659,   294.185333,           0.
** ... 3534 like lines cut
*Element, type=S3
  1,  257,  159,  193
  2,  779, 3186,  646
  3, 3117,  375,  287
  4, 3127,  374,  286
  5, 3078,  378,  290
  6, 3068,  361,  310
  7, 3077,  362,  309
  8, 3129,  430,  323
  9, 3119,  429,  322
 10,  512,  645,  505
 11,  869,  825,  765
 12,  683,  540,  606
 13,  704,  511,  636
 14,  570,  486,  428
 15, 3137,  638,  506
 16,  660,  518,  592
 17, 3192, 3195,  493
 18, 1720,  629, 1530
 19, 3155,  648,  574
 20,  999, 3275,  937
** ... 94 like lines cut
*Element, type=S4R
 115,  291,  330,  257,  193
 116,  208,  134,  160,  218
 117,  117,  160,    3,    2
 118,  237,  263,  202,  205
 119,  156,  127,   10,  123
 120,   94, 3009, 2940,   95
 121, 3052,  234,  297,  387
 122,   16,  115,  172,  141
 123,  200,  136,  164,  235
 124,  141,  170,    9,   16
 125,  139,  149,   23,   22
 126, 3087, 3126,  203,  219
 127,   15,   14,  124,  146
 128,  302, 3046, 3045,  352
 129,  178,  128,  154,  227
 130,  118,  150,  117,    2
 131,  113,  147,    1,    8
 132,   14,  125,  157,  124
 133,  126,  161,   13,   12
 134,  120,    6,  151,  195
** ... 3424 like lines cut
*Nset, nset=_PickedSet2, internal, generate
    1,  3554,     1
*Elset, elset=_PickedSet2, internal, generate
    1,  3558,     1
** Section: tole
*Shell Section, elset=_PickedSet2, material=acier
0.5, 5
*End Part
**  
**
** ASSEMBLY
**
*Assembly, name=Assembly
**  
*Instance, name=plaque-1, part=plaque
*End Instance
**  
*Node
      1,   109.814659,   290.185333,           0.
*Node
      2,   109.814659,   109.814659,           0.
*Node
      3,   290.185333,   109.814659,           0.
*Node
      4,   290.185333,   290.185333,           0.
*Nset, nset=_PickedSet9, internal
 1,
*Nset, nset=_PickedSet11, internal
 2,
*Nset, nset=_PickedSet13, internal
 3,
*Nset, nset=_PickedSet15, internal
 4,
*Nset, nset=_PickedSet16, internal, generate
 1,  4,  1
*Elset, elset=__PickedSurf8_E3, internal, instance=plaque-1
 125, 140, 144, 148
*Elset, elset=__PickedSurf8_E2, internal, instance=plaque-1
 222, 240, 243, 248
*Surface, type=ELEMENT, name=_PickedSurf8, internal
__PickedSurf8_E3, E3
__PickedSurf8_E2, E2
*Elset, elset=__PickedSurf10_E3, internal, instance=plaque-1
 124, 133
*Elset, elset=__PickedSurf10_E1, internal, instance=plaque-1
 127, 225
*Elset, elset=__PickedSurf10_E2, internal, instance=plaque-1
 216, 224, 226, 227
*Surface, type=ELEMENT, name=_PickedSurf10, internal
__PickedSurf10_E3, E3
__PickedSurf10_E1, E1
__PickedSurf10_E2, E2
*Elset, elset=__PickedSurf12_E3, internal, instance=plaque-1
 117, 131, 157, 181
*Elset, elset=__PickedSurf12_E2, internal, instance=plaque-1
 213, 217, 219, 239
*Surface, type=ELEMENT, name=_PickedSurf12, internal
__PickedSurf12_E3, E3
__PickedSurf12_E2, E2
*Elset, elset=__PickedSurf14_E3, internal, instance=plaque-1
 135, 137
*Elset, elset=__PickedSurf14_E2, internal, instance=plaque-1
 214, 229, 233, 235
*Elset, elset=__PickedSurf14_E1, internal, instance=plaque-1
 231, 234
*Surface, type=ELEMENT, name=_PickedSurf14, internal
__PickedSurf14_E3, E3
__PickedSurf14_E2, E2
__PickedSurf14_E1, E1
** Constraint: Constraint-1
*Coupling, constraint name=Constraint-1, ref node=_PickedSet9, surface=_PickedSurf8
*Kinematic
** Constraint: Constraint-2
*Coupling, constraint name=Constraint-2, ref node=_PickedSet11, surface=_PickedSurf10
*Kinematic
** Constraint: Constraint-3
*Coupling, constraint name=Constraint-3, ref node=_PickedSet13, surface=_PickedSurf12
*Kinematic
** Constraint: Constraint-4
*Coupling, constraint name=Constraint-4, ref node=_PickedSet15, surface=_PickedSurf14
*Kinematic
*End Assembly
** 
** MATERIALS
** 
*Material, name=acier
*Density
 7.86e-09,
*Elastic
210000., 0.26
** ----------------------------------------------------------------
** 
** STEP: analyse_modale
** 
*Step, name=analyse_modale, nlgeom=NO, perturbation
*Frequency, eigensolver=Lanczos, sim, acoustic coupling=on, normalization=mass
, , 500., , , 
** 
** BOUNDARY CONDITIONS
** 
** Name: blocage Type: Symmetry/Antisymmetry/Encastre
*Boundary
_PickedSet16, ENCASTRE
** 
** OUTPUT REQUESTS
** 
*Restart, write, frequency=0
** 
** FIELD OUTPUT: F-Output-1
** 
*Output, field
*Node Output, variable=PRESELECT
** 
** HISTORY OUTPUT: H-Output-1
** 
*Output, history
*Energy Output, variable=ALL
*End Step
