*Heading
** Job name: vibration Model name: Model-1
** Generated by: Abaqus/CAE 2025
*Preprint, echo=NO, model=NO, history=NO, contact=NO
**
** PARTS
**
*Part, name=plaque
*Node
      1,   256.608032,   143.391953,           0.
      2,   255.436478,   140.563522,           0.
      3,   256.608032,   137.735107,           0.
      4,   259.436462,   136.563522,           0.
      5,   262.264893,   137.735107,           0.
      6,   263.436462,   140.563522,           0.
      7,   262.264893,   143.391953,           0.
      8,   259.436462,   144.563522,           0.
      9,   137.735107,   143.391953,           0.
     10,   136.563522,   140.563522,           0.
     11,   137.735107,   137.735107,           0.
     12,   140.563522,   136.563522,           0.
     13,   143.391953,   137.735107,           0.
     14,   144.563522,   140.563522,           0.
     15,   143.391953,   143.391953,           0.
     16,   140.563522,   144.563522,           0.
     17,   143.391953,   256.608032,           0.
     18,   144.563522,   259.436462,           0.
     19,   143.391953,   262.264893,           0.
     20,   140.563522,   263.436462,           0.
** ... 3012 like lines cut
*Element, type=S3
  1,  241,  218,  176
  2, 2624, 2604,  214
  3, 2634,  185,  213
  4,  250,  187,  236
  5, 2634,  278,  245
  6,  329,  260,  286
  7, 2666, 2613,  296
  8,  326, 2631,  256
  9,  351,  406,  271
 10, 2651,  365,  431
 11, 2712,  747,  591
 12, 2713,  656,  512
 13, 2671,  506,  356
 14,  400,  450,  389
 15, 2699,  613,  461
 16,  508,  368,  491
 17, 2673,  512,  372
 18, 2675,  587,  446
 19, 2745,  820,  917
 20, 2767,  810,  656
** ... 80 like lines cut
*Element, type=S4R
 101,  159,  120,    6,  117
 102,  228,  256,  196,  198
 103,  377,  292,  330,  446
 104,  134,  165,    5,    4
 105,  119,  169,    3,    2
 106, 2668,  332,  264, 2629
 107,  166,  258, 2656,  123
 108,   11,  124,  166,  123
 109,   94, 2525, 2414,   95
 110,    9,  115,  158,  125
 111,  266,  227,  295,  440
 112,   23,  136,  147,  116
 113,  115,    9,   16,  146
 114,  187,  136,  173,  236
 115,  140,  126,  155, 2590
 116,  458,  533,  406,  351
 117,  128,  152, 2591,  181
 118, 2593,  271, 2628,  207
 119,  151,    1,  113, 2586
 120,  151, 2586,  207,  182
** ... 2909 like lines cut
*Nset, nset=_PickedSet2, internal, generate
    1,  3032,     1
*Elset, elset=_PickedSet2, internal, generate
    1,  3029,     1
** Section: tole
*Shell Section, elset=_PickedSet2, material=acier
0.5, 5
*End Part
**  
**
** ASSEMBLY
**
*Assembly, name=Assembly
**  
*Instance, name=plaque-1, part=plaque
*End Instance
**  
*Node
      1,   140.563522,   259.436462,           0.
*Node
      2,   140.563522,   140.563522,           0.
*Node
      3,   259.436462,   140.563522,           0.
*Node
      4,   259.436462,   259.436462,           0.
*Nset, nset=_PickedSet9, internal
 1,
*Nset, nset=_PickedSet11, internal
 2,
*Nset, nset=_PickedSet13, internal
 3,
*Nset, nset=_PickedSet15, internal
 4,
*Nset, nset=_PickedSet16, internal, generate
 1,  4,  1
*Elset, elset=__PickedSurf8_E3, internal, instance=plaque-1
 130, 136, 201, 228
*Elset, elset=__PickedSurf8_E4, internal, instance=plaque-1
 180,
*Elset, elset=__PickedSurf8_E2, internal, instance=plaque-1
 211, 217, 244
*Surface, type=ELEMENT, name=_PickedSurf8, internal
__PickedSurf8_E3, E3
__PickedSurf8_E4, E4
__PickedSurf8_E2, E2
*Elset, elset=__PickedSurf10_E2, internal, instance=plaque-1
 113, 219, 224
*Elset, elset=__PickedSurf10_E3, internal, instance=plaque-1
 121, 196, 213
*Elset, elset=__PickedSurf10_E1, internal, instance=plaque-1
 209, 223
*Surface, type=ELEMENT, name=_PickedSurf10, internal
__PickedSurf10_E2, E2
__PickedSurf10_E3, E3
__PickedSurf10_E1, E1
*Elset, elset=__PickedSurf12_E3, internal, instance=plaque-1
 104, 105, 144
*Elset, elset=__PickedSurf12_E2, internal, instance=plaque-1
 206, 212, 214, 236
*Elset, elset=__PickedSurf12_E1, internal, instance=plaque-1
 207,
*Surface, type=ELEMENT, name=_PickedSurf12, internal
__PickedSurf12_E3, E3
__PickedSurf12_E2, E2
__PickedSurf12_E1, E1
*Elset, elset=__PickedSurf14_E2, internal, instance=plaque-1
 123, 227, 229, 231, 234
*Elset, elset=__PickedSurf14_E3, internal, instance=plaque-1
 124, 139, 142
*Surface, type=ELEMENT, name=_PickedSurf14, internal
__PickedSurf14_E2, E2
__PickedSurf14_E3, E3
** Constraint: Constraint-1
*Coupling, constraint name=Constraint-1, ref node=_PickedSet9, surface=_PickedSurf8
*Kinematic
** Constraint: Constraint-2
*Coupling, constraint name=Constraint-2, ref node=_PickedSet11, surface=_PickedSurf10
*Kinematic
** Constraint: Constraint-3
*Coupling, constraint name=Constraint-3, ref node=_PickedSet13, surface=_PickedSurf12
*Kinematic
** Constraint: Constraint-4
*Coupling, constraint name=Constraint-4, ref node=_PickedSet15, surface=_PickedSurf14
*Kinematic
*End Assembly
** 
** MATERIALS
** 
*Material, name=acier
*Density
 7.86e-09,
*Elastic
210000., 0.26
** ----------------------------------------------------------------
** 
** STEP: analyse_modale
** 
*Step, name=analyse_modale, nlgeom=NO, perturbation
*Frequency, eigensolver=Lanczos, sim, acoustic coupling=on, normalization=mass
, , 500., , , 
** 
** BOUNDARY CONDITIONS
** 
** Name: blocage Type: Symmetry/Antisymmetry/Encastre
*Boundary
_PickedSet16, ENCASTRE
** 
** OUTPUT REQUESTS
** 
*Restart, write, frequency=0
** 
** FIELD OUTPUT: F-Output-1
** 
*Output, field
*Node Output, variable=PRESELECT
** 
** HISTORY OUTPUT: H-Output-1
** 
*Output, history
*Energy Output, variable=ALL
*End Step
