*Heading
** Job name: vibration Model name: Model-1
** Generated by: Abaqus/CAE 2025
*Preprint, echo=NO, model=NO, history=NO, contact=NO
**
** PARTS
**
*Part, name=plaque
*Node
      1,   270.674652,   129.325348,           0.
      2,   269.503082,   126.496925,           0.
      3,   270.674652,   123.668495,           0.
      4,   273.503082,   122.496925,           0.
      5,   276.331512,   123.668495,           0.
      6,   277.503082,   126.496925,           0.
      7,   276.331512,   129.325348,           0.
      8,   273.503082,   130.496918,           0.
      9,   123.668495,   129.325348,           0.
     10,   122.496925,   126.496925,           0.
     11,   123.668495,   123.668495,           0.
     12,   126.496925,   122.496925,           0.
     13,   129.325348,   123.668495,           0.
     14,   130.496918,   126.496925,           0.
     15,   129.325348,   129.325348,           0.
     16,   126.496925,   130.496918,           0.
     17,   129.325348,   270.674652,           0.
     18,   130.496918,   273.503082,           0.
     19,   129.325348,   276.331512,           0.
     20,   126.496925,   277.503082,           0.
** ... 3332 like lines cut
*Element, type=S3
  1,  204,  138,  168
  2, 2897,  193,  210
  3,  340,  306,  278
  4, 2895,  495,  298
  5,  391,  471,  415
  6,  404,  337,  341
  7,  474,  428,  397
  8,  452,  417,  390
  9,  499,  431,  475
 10, 2984,  480,  608
 11, 2967,  719,  566
 12,  392,  596,  411
 13,  811,  658,  716
 14, 1129,  884,  805
 15,  895,  718,  819
 16,  825,  590,  667
 17,  814,  733,  713
 18,  726,  969,  810
 19,  729,  883, 3027
 20, 3060, 3091, 1040
** ... 80 like lines cut
*Element, type=S4R
 101,    6,  160,  122,    7
 102,  261,  200,  231, 2899
 103, 2877,  296,  326, 2899
 104,    5,  137,  165,  119
 105,    3,  120,  168,  138
 106,  164,  130,   13,  129
 107,  170,  125,  199,  233
 108,   11,  126,  167,  125
 109,   94, 2843, 2755,   95
 110,    9,  118,  176,  127
 111,  116,  149,   16,   15
 112,   23,  139,  148,  117
 113,  266,  176,  224,  289
 114,  117,  146,   24,   23
 115,  117,  148,  219,  180
 116,  304,  342,  338, 2909
 117,  114,  157,    8,    7
 118,  188,  218,  154,  130
 119,  121,  151,    2,    1
 120,  125,  170,   12,   11
** ... 3229 like lines cut
*Nset, nset=_PickedSet2, internal, generate
    1,  3352,     1
*Elset, elset=_PickedSet2, internal, generate
    1,  3349,     1
** Section: tole
*Shell Section, elset=_PickedSet2, material=acier
0.5, 5
*End Part
**  
**
** ASSEMBLY
**
*Assembly, name=Assembly
**  
*Instance, name=plaque-1, part=plaque
*End Instance
**  
*Node
      1,   126.496925,   273.503082,           0.
*Node
      2,   126.496925,   126.496925,           0.
*Node
      3,   273.503082,   126.496925,           0.
*Node
      4,   273.503082,   273.503082,           0.
*Nset, nset=_PickedSet9, internal
 1,
*Nset, nset=_PickedSet11, internal
 2,
*Nset, nset=_PickedSet13, internal
 3,
*Nset, nset=_PickedSet15, internal
 4,
*Nset, nset=_PickedSet16, internal, generate
 1,  4,  1
*Elset, elset=__PickedSurf8_E3, internal, instance=plaque-1
 114, 122, 127, 198
*Elset, elset=__PickedSurf8_E2, internal, instance=plaque-1
 134, 206, 216
*Elset, elset=__PickedSurf8_E4, internal, instance=plaque-1
 175,
*Surface, type=ELEMENT, name=_PickedSurf8, internal
__PickedSurf8_E3, E3
__PickedSurf8_E2, E2
__PickedSurf8_E4, E4
*Elset, elset=__PickedSurf10_E3, internal, instance=plaque-1
 111, 120, 191
*Elset, elset=__PickedSurf10_E4, internal, instance=plaque-1
 188,
*Elset, elset=__PickedSurf10_E2, internal, instance=plaque-1
 205, 208, 222
*Elset, elset=__PickedSurf10_E1, internal, instance=plaque-1
 220,
*Surface, type=ELEMENT, name=_PickedSurf10, internal
__PickedSurf10_E3, E3
__PickedSurf10_E4, E4
__PickedSurf10_E2, E2
__PickedSurf10_E1, E1
*Elset, elset=__PickedSurf12_E4, internal, instance=plaque-1
 101,
*Elset, elset=__PickedSurf12_E3, internal, instance=plaque-1
 117, 119, 121, 149
*Elset, elset=__PickedSurf12_E2, internal, instance=plaque-1, generate
 210,  212,    1
*Surface, type=ELEMENT, name=_PickedSurf12, internal
__PickedSurf12_E4, E4
__PickedSurf12_E3, E3
__PickedSurf12_E2, E2
*Elset, elset=__PickedSurf14_E3, internal, instance=plaque-1
 137, 161
*Elset, elset=__PickedSurf14_E2, internal, instance=plaque-1
 202, 224, 226, 228
*Elset, elset=__PickedSurf14_E1, internal, instance=plaque-1
 203, 225
*Surface, type=ELEMENT, name=_PickedSurf14, internal
__PickedSurf14_E3, E3
__PickedSurf14_E2, E2
__PickedSurf14_E1, E1
** Constraint: Constraint-1
*Coupling, constraint name=Constraint-1, ref node=_PickedSet9, surface=_PickedSurf8
*Kinematic
** Constraint: Constraint-2
*Coupling, constraint name=Constraint-2, ref node=_PickedSet11, surface=_PickedSurf10
*Kinematic
** Constraint: Constraint-3
*Coupling, constraint name=Constraint-3, ref node=_PickedSet13, surface=_PickedSurf12
*Kinematic
** Constraint: Constraint-4
*Coupling, constraint name=Constraint-4, ref node=_PickedSet15, surface=_PickedSurf14
*Kinematic
*End Assembly
** 
** MATERIALS
** 
*Material, name=acier
*Density
 7.86e-09,
*Elastic
210000., 0.26
** ----------------------------------------------------------------
** 
** STEP: analyse_modale
** 
*Step, name=analyse_modale, nlgeom=NO, perturbation
*Frequency, eigensolver=Lanczos, sim, acoustic coupling=on, normalization=mass
, , 500., , , 
** 
** BOUNDARY CONDITIONS
** 
** Name: blocage Type: Symmetry/Antisymmetry/Encastre
*Boundary
_PickedSet16, ENCASTRE
** 
** OUTPUT REQUESTS
** 
*Restart, write, frequency=0
** 
** FIELD OUTPUT: F-Output-1
** 
*Output, field
*Node Output, variable=PRESELECT
** 
** HISTORY OUTPUT: H-Output-1
** 
*Output, history
*Energy Output, variable=ALL
*End Step
