*Heading
** Job name: vibration Model name: Model-1
** Generated by: Abaqus/CAE 2025
*Preprint, echo=NO, model=NO, history=NO, contact=NO
**
** PARTS
**
*Part, name=plaque
*Node
      1,   343.065918,   56.9340782,           0.
      2,   341.894348,    54.105648,           0.
      3,   343.065918,   51.2772217,           0.
      4,   345.894348,    50.105648,           0.
      5,   348.722778,   51.2772217,           0.
      6,   349.894348,    54.105648,           0.
      7,   348.722778,   56.9340782,           0.
      8,   345.894348,    58.105648,           0.
      9,   51.2772217,   56.9340782,           0.
     10,    50.105648,    54.105648,           0.
     11,   51.2772217,   51.2772217,           0.
     12,    54.105648,    50.105648,           0.
     13,   56.9340782,   51.2772217,           0.
     14,    58.105648,    54.105648,           0.
     15,   56.9340782,   56.9340782,           0.
     16,    54.105648,    58.105648,           0.
     17,   56.9340782,   343.065918,           0.
     18,    58.105648,   345.894348,           0.
     19,   56.9340782,   348.722778,           0.
     20,    54.105648,   349.894348,           0.
** ... 1490 like lines cut
*Element, type=S3
 1,  115,  213,  173
 2,  234,  311,  258
 3,  285,  231,  254
 4,  189,  269, 1334
 5,  228, 1361,  250
 6,  206,  141,  172
 7,  295,  212,  268
 8, 1332,  230,  145
 9, 1391,  325, 1373
10,  179,  263,  183
11,  225, 1326,  274
12, 1348,  321,  291
13, 1347, 1344,  290
14, 1345,  334,  290
15,  236,  322,  294
16, 1219, 1342, 1207
17,  345, 1405, 1376
18,  436,  398,  416
19, 1412,  443,  407
20,  591,  526,  365
** ... 42 like lines cut
*Element, type=S4R
  63,  163,  134,  192,  241
  64, 1320,    5,  134,  163
  65,  135,    4,    3, 1306
  66,  199,  135,  167,  245
  67,  122,   11,  123,  162
  68, 1338,  162,  190,  221
  69,  124,    9,  114,  198
  70,  209,  246,  211,  180
  71,  116,   23,  136,  146
  72,  182,  142,  174,  210
  73,  125,  171,   15,   14
  74,  323,  278,  251,  297
  75,  139,   17,  142,  169
  76,  288,  252,  302,  337
  77,  141,    8,    7,  172
  78,  126,   14,   13,  161
  79,  290,  334,  276, 1347
  80,  227,  287, 1351,  264
  81,  125,   14,  126,  158
  82,  122, 1308,   12,   11
** ... 1406 like lines cut
*Nset, nset=_PickedSet2, internal, generate
    1,  1510,     1
*Elset, elset=_PickedSet2, internal, generate
    1,  1488,     1
** Section: tole
*Shell Section, elset=_PickedSet2, material=acier
0.5, 5
*End Part
**  
**
** ASSEMBLY
**
*Assembly, name=Assembly
**  
*Instance, name=plaque-1, part=plaque
*End Instance
**  
*Node
      1,    54.105648,   345.894348,           0.
*Node
      2,    54.105648,    54.105648,           0.
*Node
      3,   345.894348,    54.105648,           0.
*Node
      4,   345.894348,   345.894348,           0.
*Nset, nset=_PickedSet9, internal
 1,
*Nset, nset=_PickedSet11, internal
 2,
*Nset, nset=_PickedSet13, internal
 3,
*Nset, nset=_PickedSet15, internal
 4,
*Nset, nset=_PickedSet16, internal, generate
 1,  4,  1
*Elset, elset=__PickedSurf8_E3, internal, instance=plaque-1
 89, 95
*Elset, elset=__PickedSurf8_E2, internal, instance=plaque-1
  92, 162, 168
*Elset, elset=__PickedSurf8_E4, internal, instance=plaque-1
 150, 186, 187
*Surface, type=ELEMENT, name=_PickedSurf8, internal
__PickedSurf8_E3, E3
__PickedSurf8_E2, E2
__PickedSurf8_E4, E4
*Elset, elset=__PickedSurf10_E3, internal, instance=plaque-1
  73,  82, 143
*Elset, elset=__PickedSurf10_E2, internal, instance=plaque-1
  78, 114, 158, 159, 170
*Surface, type=ELEMENT, name=_PickedSurf10, internal
__PickedSurf10_E3, E3
__PickedSurf10_E2, E2
*Elset, elset=__PickedSurf12_E2, internal, instance=plaque-1
  65,  77, 102, 163, 164
*Elset, elset=__PickedSurf12_E3, internal, instance=plaque-1
 83,
*Elset, elset=__PickedSurf12_E4, internal, instance=plaque-1
 157,
*Elset, elset=__PickedSurf12_E1, internal, instance=plaque-1
 165,
*Surface, type=ELEMENT, name=_PickedSurf12, internal
__PickedSurf12_E2, E2
__PickedSurf12_E3, E3
__PickedSurf12_E4, E4
__PickedSurf12_E1, E1
*Elset, elset=__PickedSurf14_E3, internal, instance=plaque-1
 100, 101
*Elset, elset=__PickedSurf14_E2, internal, instance=plaque-1
 161, 177, 180, 182
*Elset, elset=__PickedSurf14_E4, internal, instance=plaque-1
 175,
*Elset, elset=__PickedSurf14_E1, internal, instance=plaque-1
 178,
*Surface, type=ELEMENT, name=_PickedSurf14, internal
__PickedSurf14_E3, E3
__PickedSurf14_E2, E2
__PickedSurf14_E4, E4
__PickedSurf14_E1, E1
** Constraint: Constraint-1
*Coupling, constraint name=Constraint-1, ref node=_PickedSet9, surface=_PickedSurf8
*Kinematic
** Constraint: Constraint-2
*Coupling, constraint name=Constraint-2, ref node=_PickedSet11, surface=_PickedSurf10
*Kinematic
** Constraint: Constraint-3
*Coupling, constraint name=Constraint-3, ref node=_PickedSet13, surface=_PickedSurf12
*Kinematic
** Constraint: Constraint-4
*Coupling, constraint name=Constraint-4, ref node=_PickedSet15, surface=_PickedSurf14
*Kinematic
*End Assembly
** 
** MATERIALS
** 
*Material, name=acier
*Density
 7.86e-09,
*Elastic
210000., 0.26
** ----------------------------------------------------------------
** 
** STEP: analyse_modale
** 
*Step, name=analyse_modale, nlgeom=NO, perturbation
*Frequency, eigensolver=Lanczos, sim, acoustic coupling=on, normalization=mass
, , 500., , , 
** 
** BOUNDARY CONDITIONS
** 
** Name: blocage Type: Symmetry/Antisymmetry/Encastre
*Boundary
_PickedSet16, ENCASTRE
** 
** OUTPUT REQUESTS
** 
*Restart, write, frequency=0
** 
** FIELD OUTPUT: F-Output-1
** 
*Output, field
*Node Output, variable=PRESELECT
** 
** HISTORY OUTPUT: H-Output-1
** 
*Output, history
*Energy Output, variable=ALL
*End Step
