*Heading
** Job name: vibration Model name: Model-1
** Generated by: Abaqus/CAE 2025
*Preprint, echo=NO, model=NO, history=NO, contact=NO
**
** PARTS
**
*Part, name=plaque
*Node
      1,   239.126068,   160.873932,           0.
      2,   237.954498,   158.045502,           0.
      3,   239.126068,   155.217072,           0.
      4,   241.954498,   154.045502,           0.
      5,   244.782928,   155.217072,           0.
      6,   245.954498,   158.045502,           0.
      7,   244.782928,   160.873932,           0.
      8,   241.954498,   162.045502,           0.
      9,   155.217072,   160.873932,           0.
     10,   154.045502,   158.045502,           0.
     11,   155.217072,   155.217072,           0.
     12,   158.045502,   154.045502,           0.
     13,   160.873932,   155.217072,           0.
     14,   162.045502,   158.045502,           0.
     15,   160.873932,   160.873932,           0.
     16,   158.045502,   162.045502,           0.
     17,   160.873932,   239.126068,           0.
     18,   162.045502,   241.954498,           0.
     19,   160.873932,   244.782928,           0.
     20,   158.045502,   245.954498,           0.
** ... 2415 like lines cut
*Element, type=S3
 1,  204,  136,  159
 2,  267,  194,  228
 3,  258,  198,  231
 4,  346, 2183,  269
 5, 2154,  226,  269
 6,  303, 2230, 2270
 7,  196,  294,  229
 8,  437, 2225,  524
 9,  628,  448,  468
10,  563,  540,  389
11, 2199,  414,  358
12, 2188,  332,  282
13,  411, 2242, 2196
14, 2228,  453,  527
15, 2251,  469,  545
16, 2297, 2260,  474
17,  617,  515,  597
18,  517, 2276,  579
19, 2252,  340,  465
20, 2208,  571,  585
** ... 64 like lines cut
*Element, type=S4R
  85,  227,  268,  195,  160
  86,  422,  302,  397,  521
  87,  118,  160,    5,    4
  88,  614,  687,  541,  458
  89,  189,  125,  173, 2155
  90,    4,  119,  167,  118
  91, 2154,  269, 2183,  197
  92,   11,  121,  162,  120
  93,  346,  297,  392,  457
  94,   94, 2058, 1948,   95
  95,    9,  113,  158,  122
  96, 2160,  142,  123,  186
  97,  202,  224,  265, 2195
  98,   23,  123,  142,  114
  99,  349, 2218,  381,  440
 100,  181,  248, 2157,  154
 101,  116,  156,    8,    7
 102,  181,   15,   14,  150
 103,  183,  139,  156,  208
 104,  146,  150,   14,   13
** ... 2320 like lines cut
*Nset, nset=_PickedSet2, internal, generate
    1,  2435,     1
*Elset, elset=_PickedSet2, internal, generate
    1,  2424,     1
** Section: tole
*Shell Section, elset=_PickedSet2, material=acier
0.5, 5
*End Part
**  
**
** ASSEMBLY
**
*Assembly, name=Assembly
**  
*Instance, name=plaque-1, part=plaque
*End Instance
**  
*Node
      1,   158.045502,   241.954498,           0.
*Node
      2,   158.045502,   158.045502,           0.
*Node
      3,   241.954498,   158.045502,           0.
*Node
      4,   241.954498,   241.954498,           0.
*Nset, nset=_PickedSet9, internal
 1,
*Nset, nset=_PickedSet11, internal
 2,
*Nset, nset=_PickedSet13, internal
 3,
*Nset, nset=_PickedSet15, internal
 4,
*Nset, nset=_PickedSet16, internal, generate
 1,  4,  1
*Elset, elset=__PickedSurf8_E3, internal, instance=plaque-1, generate
 109,  121,    6
*Elset, elset=__PickedSurf8_E2, internal, instance=plaque-1
 191, 213, 214, 217
*Elset, elset=__PickedSurf8_E1, internal, instance=plaque-1
 201,
*Surface, type=ELEMENT, name=_PickedSurf8, internal
__PickedSurf8_E3, E3
__PickedSurf8_E2, E2
__PickedSurf8_E1, E1
*Elset, elset=__PickedSurf10_E2, internal, instance=plaque-1
 102, 189, 205
*Elset, elset=__PickedSurf10_E3, internal, instance=plaque-1
 104, 105, 181
*Elset, elset=__PickedSurf10_E4, internal, instance=plaque-1
 178,
*Elset, elset=__PickedSurf10_E1, internal, instance=plaque-1
 190,
*Surface, type=ELEMENT, name=_PickedSurf10, internal
__PickedSurf10_E2, E2
__PickedSurf10_E3, E3
__PickedSurf10_E4, E4
__PickedSurf10_E1, E1
*Elset, elset=__PickedSurf12_E3, internal, instance=plaque-1
  87, 101, 108, 129
*Elset, elset=__PickedSurf12_E2, internal, instance=plaque-1
 194, 195, 204
*Elset, elset=__PickedSurf12_E1, internal, instance=plaque-1
 196,
*Surface, type=ELEMENT, name=_PickedSurf12, internal
__PickedSurf12_E3, E3
__PickedSurf12_E2, E2
__PickedSurf12_E1, E1
*Elset, elset=__PickedSurf14_E3, internal, instance=plaque-1
 110, 112, 152
*Elset, elset=__PickedSurf14_E2, internal, instance=plaque-1
 128, 209, 210
*Elset, elset=__PickedSurf14_E4, internal, instance=plaque-1
 150,
*Elset, elset=__PickedSurf14_E1, internal, instance=plaque-1
 192,
*Surface, type=ELEMENT, name=_PickedSurf14, internal
__PickedSurf14_E3, E3
__PickedSurf14_E2, E2
__PickedSurf14_E4, E4
__PickedSurf14_E1, E1
** Constraint: Constraint-1
*Coupling, constraint name=Constraint-1, ref node=_PickedSet9, surface=_PickedSurf8
*Kinematic
** Constraint: Constraint-2
*Coupling, constraint name=Constraint-2, ref node=_PickedSet11, surface=_PickedSurf10
*Kinematic
** Constraint: Constraint-3
*Coupling, constraint name=Constraint-3, ref node=_PickedSet13, surface=_PickedSurf12
*Kinematic
** Constraint: Constraint-4
*Coupling, constraint name=Constraint-4, ref node=_PickedSet15, surface=_PickedSurf14
*Kinematic
*End Assembly
** 
** MATERIALS
** 
*Material, name=acier
*Density
 7.86e-09,
*Elastic
210000., 0.26
** ----------------------------------------------------------------
** 
** STEP: analyse_modale
** 
*Step, name=analyse_modale, nlgeom=NO, perturbation
*Frequency, eigensolver=Lanczos, sim, acoustic coupling=on, normalization=mass
, , 500., , , 
** 
** BOUNDARY CONDITIONS
** 
** Name: blocage Type: Symmetry/Antisymmetry/Encastre
*Boundary
_PickedSet16, ENCASTRE
** 
** OUTPUT REQUESTS
** 
*Restart, write, frequency=0
** 
** FIELD OUTPUT: F-Output-1
** 
*Output, field
*Node Output, variable=PRESELECT
** 
** HISTORY OUTPUT: H-Output-1
** 
*Output, history
*Energy Output, variable=ALL
*End Step
