*Heading
** Job name: vibration Model name: Model-1
** Generated by: Abaqus/CAE 2025
*Preprint, echo=NO, model=NO, history=NO, contact=NO
**
** PARTS
**
*Part, name=plaque
*Node
      1,   288.739227,    111.26078,           0.
      2,   287.567657,   108.432358,           0.
      3,   288.739227,   105.603928,           0.
      4,   291.567657,   104.432358,           0.
      5,   294.396057,   105.603928,           0.
      6,   295.567657,   108.432358,           0.
      7,   294.396057,    111.26078,           0.
      8,   291.567657,   112.432358,           0.
      9,   105.603928,    111.26078,           0.
     10,   104.432358,   108.432358,           0.
     11,   105.603928,   105.603928,           0.
     12,   108.432358,   104.432358,           0.
     13,    111.26078,   105.603928,           0.
     14,   112.432358,   108.432358,           0.
     15,    111.26078,    111.26078,           0.
     16,   108.432358,   112.432358,           0.
     17,    111.26078,   288.739227,           0.
     18,   112.432358,   291.567657,           0.
     19,    111.26078,   294.396057,           0.
     20,   108.432358,   295.567657,           0.
** ... 3496 like lines cut
*Element, type=S3
  1, 2914,  631,  700
  2,  206,  134,  152
  3,  202,  290,  231
  4,  200,  291,  232
  5, 3043,  209,  246
  6,  612,  484,  543
  7,  289,  234,  206
  8,  581,  464,  521
  9,  303,  273,  223
 10,  353,  247,  321
 11, 3065,  364,  271
 12, 3060,  365,  272
 13,  349,  244,  318
 14, 3108,  371,  286
 15,  352,  467,  307
 16,  390,  366,  313
 17, 3111,  421,  322
 18, 3110,  642,  499
 19,  704,  557,  628
 20, 3112,  488,  370
** ... 94 like lines cut
*Element, type=S4R
 115,  202,  228,  259,  290
 116,  288,  330,  259,  228
 117,    5,  136,  162,  118
 118,  335,  264,  299,  387
 119,    3,  119,  167,  137
 120,  119,    3,    2,  153
 121, 3092,  261,  201,  193
 122,  125,  165,   11,   10
 123,  193,  201,  165,  125
 124,   94, 2993, 2927,   95
 125,   10,  126,  160,  125
 126,   16,  117,  174,  142
 127,  139,  166,  266,  208
 128,  142,  173,    9,   16
 129,  116,  149,   24,   23
 130, 3079,  254, 3108,  286
 131,  398,  391, 3115,  276
 132, 3048,  271,  211,  148
 133,  114,  175,    8,    7
 134,  159, 3041, 3042,  225
** ... 3386 like lines cut
*Nset, nset=_PickedSet2, internal, generate
    1,  3516,     1
*Elset, elset=_PickedSet2, internal, generate
    1,  3520,     1
** Section: tole
*Shell Section, elset=_PickedSet2, material=acier
0.5, 5
*End Part
**  
**
** ASSEMBLY
**
*Assembly, name=Assembly
**  
*Instance, name=plaque-1, part=plaque
*End Instance
**  
*Node
      1,   108.432358,   291.567657,           0.
*Node
      2,   108.432358,   108.432358,           0.
*Node
      3,   291.567657,   108.432358,           0.
*Node
      4,   291.567657,   291.567657,           0.
*Nset, nset=_PickedSet9, internal
 1,
*Nset, nset=_PickedSet11, internal
 2,
*Nset, nset=_PickedSet13, internal
 3,
*Nset, nset=_PickedSet15, internal
 4,
*Nset, nset=_PickedSet16, internal, generate
 1,  4,  1
*Elset, elset=__PickedSurf8_E3, internal, instance=plaque-1
 129, 145, 213
*Elset, elset=__PickedSurf8_E2, internal, instance=plaque-1
 153, 220, 227
*Elset, elset=__PickedSurf8_E1, internal, instance=plaque-1
 229, 243
*Surface, type=ELEMENT, name=_PickedSurf8, internal
__PickedSurf8_E3, E3
__PickedSurf8_E2, E2
__PickedSurf8_E1, E1
*Elset, elset=__PickedSurf10_E3, internal, instance=plaque-1
 122, 128, 137
*Elset, elset=__PickedSurf10_E4, internal, instance=plaque-1
 206,
*Elset, elset=__PickedSurf10_E2, internal, instance=plaque-1
 222, 232, 235
*Elset, elset=__PickedSurf10_E1, internal, instance=plaque-1
 223,
*Surface, type=ELEMENT, name=_PickedSurf10, internal
__PickedSurf10_E3, E3
__PickedSurf10_E4, E4
__PickedSurf10_E2, E2
__PickedSurf10_E1, E1
*Elset, elset=__PickedSurf12_E2, internal, instance=plaque-1
 120, 163, 224, 226
*Elset, elset=__PickedSurf12_E3, internal, instance=plaque-1
 133, 135, 169, 186
*Surface, type=ELEMENT, name=_PickedSurf12, internal
__PickedSurf12_E2, E2
__PickedSurf12_E3, E3
*Elset, elset=__PickedSurf14_E3, internal, instance=plaque-1
 143, 181, 199
*Elset, elset=__PickedSurf14_E4, internal, instance=plaque-1
 144,
*Elset, elset=__PickedSurf14_E2, internal, instance=plaque-1
 161, 237, 239
*Elset, elset=__PickedSurf14_E1, internal, instance=plaque-1
 218,
*Surface, type=ELEMENT, name=_PickedSurf14, internal
__PickedSurf14_E3, E3
__PickedSurf14_E4, E4
__PickedSurf14_E2, E2
__PickedSurf14_E1, E1
** Constraint: Constraint-1
*Coupling, constraint name=Constraint-1, ref node=_PickedSet9, surface=_PickedSurf8
*Kinematic
** Constraint: Constraint-2
*Coupling, constraint name=Constraint-2, ref node=_PickedSet11, surface=_PickedSurf10
*Kinematic
** Constraint: Constraint-3
*Coupling, constraint name=Constraint-3, ref node=_PickedSet13, surface=_PickedSurf12
*Kinematic
** Constraint: Constraint-4
*Coupling, constraint name=Constraint-4, ref node=_PickedSet15, surface=_PickedSurf14
*Kinematic
*End Assembly
** 
** MATERIALS
** 
*Material, name=acier
*Density
 7.86e-09,
*Elastic
210000., 0.26
** ----------------------------------------------------------------
** 
** STEP: analyse_modale
** 
*Step, name=analyse_modale, nlgeom=NO, perturbation
*Frequency, eigensolver=Lanczos, sim, acoustic coupling=on, normalization=mass
, , 500., , , 
** 
** BOUNDARY CONDITIONS
** 
** Name: blocage Type: Symmetry/Antisymmetry/Encastre
*Boundary
_PickedSet16, ENCASTRE
** 
** OUTPUT REQUESTS
** 
*Restart, write, frequency=0
** 
** FIELD OUTPUT: F-Output-1
** 
*Output, field
*Node Output, variable=PRESELECT
** 
** HISTORY OUTPUT: H-Output-1
** 
*Output, history
*Energy Output, variable=ALL
*End Step
