*Heading
** Job name: vibration Model name: Model-1
** Generated by: Abaqus/CAE 2025
*Preprint, echo=NO, model=NO, history=NO, contact=NO
**
** PARTS
**
*Part, name=plaque
*Node
      1,   292.169495,   107.830521,           0.
      2,   290.997894,    105.00209,           0.
      3,   292.169495,   102.173668,           0.
      4,   294.997894,    101.00209,           0.
      5,   297.826324,   102.173668,           0.
      6,   298.997894,    105.00209,           0.
      7,   297.826324,   107.830521,           0.
      8,   294.997894,    109.00209,           0.
      9,   102.173668,   107.830521,           0.
     10,    101.00209,    105.00209,           0.
     11,   102.173668,   102.173668,           0.
     12,    105.00209,    101.00209,           0.
     13,   107.830521,   102.173668,           0.
     14,    109.00209,    105.00209,           0.
     15,   107.830521,   107.830521,           0.
     16,    105.00209,    109.00209,           0.
     17,   107.830521,   292.169495,           0.
     18,    109.00209,   294.997894,           0.
     19,   107.830521,   297.826324,           0.
     20,    105.00209,   298.997894,           0.
** ... 3751 like lines cut
*Element, type=S3
  1,  187,  141,  149
  2,  260,  199,  223
  3,  348,  243,  315
  4, 3206,  209,  247
  5,  191,  284,  219
  6, 1447,  626,  632
  7,  428,  382,  381
  8,  614,  406,  481
  9,  391,  365,  310
 10,  635,  575,  504
 11,  569,  373,  495
 12,  674,  542,  619
 13,  559,  424,  483
 14,  901,  769,  830
 15, 3278,  629,  476
 16,  718,  691,  767
 17, 1118,  654, 1116
 18, 1199, 1119,  728
 19, 3341,  677,  529
 20,  631,  627,  486
** ... 88 like lines cut
*Element, type=S4R
 109,  156,  219,  193,  119
 110,  261,  285,  227,  162
 111,    5,  134,  162,  116
 112,  206,  235,  169,  135
 113,    3,  117,  165,  135
 114,  117,    3,    2,  158
 115,  437,  379,  509,  566
 116,   94, 3159, 3112,   95
 117,    9,  115,  152,  124
 118,  115,    9,   16,  150
 119,  249,  289,  376,  320
 120,  136,  149,   23,   22
 121,  589,  465,  527, 3358
 122,  125,  148,   15,   14
 123, 3209,  146,  113,  176
 124,  178,  128,  154,  222
 125,  118,  158,    2,    1
 126,    1,  113,  146,  118
 127,   14,  126,  159,  125
 128,  127,   12,  122,  161
** ... 3644 like lines cut
*Nset, nset=_PickedSet2, internal, generate
    1,  3771,     1
*Elset, elset=_PickedSet2, internal, generate
    1,  3772,     1
** Section: tole
*Shell Section, elset=_PickedSet2, material=acier
0.5, 5
*End Part
**  
**
** ASSEMBLY
**
*Assembly, name=Assembly
**  
*Instance, name=plaque-1, part=plaque
*End Instance
**  
*Node
      1,    105.00209,   294.997894,           0.
*Node
      2,    105.00209,    105.00209,           0.
*Node
      3,   294.997894,    105.00209,           0.
*Node
      4,   294.997894,   294.997894,           0.
*Nset, nset=_PickedSet9, internal
 1,
*Nset, nset=_PickedSet11, internal
 2,
*Nset, nset=_PickedSet13, internal
 3,
*Nset, nset=_PickedSet15, internal
 4,
*Nset, nset=_PickedSet16, internal, generate
 1,  4,  1
*Elset, elset=__PickedSurf8_E3, internal, instance=plaque-1
 120, 134, 137
*Elset, elset=__PickedSurf8_E4, internal, instance=plaque-1
 136, 204
*Elset, elset=__PickedSurf8_E2, internal, instance=plaque-1
 232, 234
*Elset, elset=__PickedSurf8_E1, internal, instance=plaque-1
 236,
*Surface, type=ELEMENT, name=_PickedSurf8, internal
__PickedSurf8_E3, E3
__PickedSurf8_E4, E4
__PickedSurf8_E2, E2
__PickedSurf8_E1, E1
*Elset, elset=__PickedSurf10_E2, internal, instance=plaque-1
 118, 220, 221, 224
*Elset, elset=__PickedSurf10_E3, internal, instance=plaque-1, generate
 122,  200,   39
*Elset, elset=__PickedSurf10_E1, internal, instance=plaque-1
 214,
*Surface, type=ELEMENT, name=_PickedSurf10, internal
__PickedSurf10_E2, E2
__PickedSurf10_E3, E3
__PickedSurf10_E1, E1
*Elset, elset=__PickedSurf12_E2, internal, instance=plaque-1
 114, 210, 215
*Elset, elset=__PickedSurf12_E3, internal, instance=plaque-1
 125, 129, 156
*Elset, elset=__PickedSurf12_E4, internal, instance=plaque-1
 174,
*Elset, elset=__PickedSurf12_E1, internal, instance=plaque-1
 211,
*Surface, type=ELEMENT, name=_PickedSurf12, internal
__PickedSurf12_E2, E2
__PickedSurf12_E3, E3
__PickedSurf12_E4, E4
__PickedSurf12_E1, E1
*Elset, elset=__PickedSurf14_E3, internal, instance=plaque-1
 131, 133, 146, 171
*Elset, elset=__PickedSurf14_E4, internal, instance=plaque-1
 168, 192
*Elset, elset=__PickedSurf14_E2, internal, instance=plaque-1
 212, 226
*Surface, type=ELEMENT, name=_PickedSurf14, internal
__PickedSurf14_E3, E3
__PickedSurf14_E4, E4
__PickedSurf14_E2, E2
** Constraint: Constraint-1
*Coupling, constraint name=Constraint-1, ref node=_PickedSet9, surface=_PickedSurf8
*Kinematic
** Constraint: Constraint-2
*Coupling, constraint name=Constraint-2, ref node=_PickedSet11, surface=_PickedSurf10
*Kinematic
** Constraint: Constraint-3
*Coupling, constraint name=Constraint-3, ref node=_PickedSet13, surface=_PickedSurf12
*Kinematic
** Constraint: Constraint-4
*Coupling, constraint name=Constraint-4, ref node=_PickedSet15, surface=_PickedSurf14
*Kinematic
*End Assembly
** 
** MATERIALS
** 
*Material, name=acier
*Density
 7.86e-09,
*Elastic
210000., 0.26
** ----------------------------------------------------------------
** 
** STEP: analyse_modale
** 
*Step, name=analyse_modale, nlgeom=NO, perturbation
*Frequency, eigensolver=Lanczos, sim, acoustic coupling=on, normalization=mass
, , 500., , , 
** 
** BOUNDARY CONDITIONS
** 
** Name: blocage Type: Symmetry/Antisymmetry/Encastre
*Boundary
_PickedSet16, ENCASTRE
** 
** OUTPUT REQUESTS
** 
*Restart, write, frequency=0
** 
** FIELD OUTPUT: F-Output-1
** 
*Output, field
*Node Output, variable=PRESELECT
** 
** HISTORY OUTPUT: H-Output-1
** 
*Output, history
*Energy Output, variable=ALL
*End Step
