*Heading
** Job name: vibration Model name: Model-1
** Generated by: Abaqus/CAE 2025
*Preprint, echo=NO, model=NO, history=NO, contact=NO
**
** PARTS
**
*Part, name=plaque
*Node
      1,   252.822479,   147.177521,           0.
      2,   251.650909,   144.349091,           0.
      3,   252.822479,    141.52066,           0.
      4,   255.650909,   140.349091,           0.
      5,    258.47934,    141.52066,           0.
      6,   259.650909,   144.349091,           0.
      7,    258.47934,   147.177521,           0.
      8,   255.650909,   148.349091,           0.
      9,    141.52066,   147.177521,           0.
     10,   140.349091,   144.349091,           0.
     11,    141.52066,    141.52066,           0.
     12,   144.349091,   140.349091,           0.
     13,   147.177521,    141.52066,           0.
     14,   148.349091,   144.349091,           0.
     15,   147.177521,   147.177521,           0.
     16,   144.349091,   148.349091,           0.
     17,   147.177521,   252.822479,           0.
     18,   148.349091,   255.650909,           0.
     19,   147.177521,    258.47934,           0.
     20,   144.349091,   259.650909,           0.
** ... 2957 like lines cut
*Element, type=S3
 1,  199,  297,  230
 2,  207,  115,  145
 3, 2580, 2605,  245
 4, 2834, 1730, 1521
 5,  341, 2544,  270
 6,  340, 2545,  269
 7,  761,  601,  672
 8,  425,  316,  372
 9,  471,  531,  543
10,  667,  557,  575
11, 2626,  457,  538
12,  975,  877,  777
13, 2633,  554,  484
14,  669,  559,  577
15,  657,  650,  570
16,  979,  876,  775
17,  819, 2714,  644
18,  862,  685,  778
19,  691,  863,  686
20, 1059,  969,  961
** ... 72 like lines cut
*Element, type=S4R
  93,  155,  118,    6,  117
  94,  256,  197,  230,  297
  95,  331,  377,  297,  266
  96,  125,  164,    5,    4
  97,    4,  126,  161,  125
  98,  187,  134,  160,  198
  99,  258, 2565, 2528,  231
 100,  128,  165,  127,   11
 101, 2460, 2364,   55,   54
 102,  159,   10,  129,  227
 103,  129,  171,  202,  260
 104,  227,  295,  434, 2548
 105,  113,  153,   16,   15
 106,  131,   15,   14,  147
 107,  180,  131,  147,  206
 108,  407,  462,  352,  303
 109,   15,  131,  143,  113
 110,  114,  150,    1,    8
 111,  147,   14,   13,  133
 112,  160,  127,  165,  198
** ... 2858 like lines cut
*Nset, nset=_PickedSet2, internal, generate
    1,  2977,     1
*Elset, elset=_PickedSet2, internal, generate
    1,  2970,     1
** Section: tole
*Shell Section, elset=_PickedSet2, material=acier
0.5, 5
*End Part
**  
**
** ASSEMBLY
**
*Assembly, name=Assembly
**  
*Instance, name=plaque-1, part=plaque
*End Instance
**  
*Node
      1,   144.349091,   255.650909,           0.
*Node
      2,   144.349091,   144.349091,           0.
*Node
      3,   255.650909,   144.349091,           0.
*Node
      4,   255.650909,   255.650909,           0.
*Nset, nset=_PickedSet9, internal
 1,
*Nset, nset=_PickedSet11, internal
 2,
*Nset, nset=_PickedSet13, internal
 3,
*Nset, nset=_PickedSet15, internal
 4,
*Nset, nset=_PickedSet16, internal, generate
 1,  4,  1
*Elset, elset=__PickedSurf8_E3, internal, instance=plaque-1
 121, 124, 192
*Elset, elset=__PickedSurf8_E4, internal, instance=plaque-1
 186,
*Elset, elset=__PickedSurf8_E2, internal, instance=plaque-1
 194, 199, 224
*Elset, elset=__PickedSurf8_E1, internal, instance=plaque-1
 200,
*Surface, type=ELEMENT, name=_PickedSurf8, internal
__PickedSurf8_E3, E3
__PickedSurf8_E4, E4
__PickedSurf8_E2, E2
__PickedSurf8_E1, E1
*Elset, elset=__PickedSurf10_E3, internal, instance=plaque-1
 105,
*Elset, elset=__PickedSurf10_E2, internal, instance=plaque-1
 106, 111, 209, 211, 215
*Elset, elset=__PickedSurf10_E4, internal, instance=plaque-1
 182,
*Elset, elset=__PickedSurf10_E1, internal, instance=plaque-1
 208,
*Surface, type=ELEMENT, name=_PickedSurf10, internal
__PickedSurf10_E3, E3
__PickedSurf10_E2, E2
__PickedSurf10_E4, E4
__PickedSurf10_E1, E1
*Elset, elset=__PickedSurf12_E3, internal, instance=plaque-1
  96, 110, 131
*Elset, elset=__PickedSurf12_E4, internal, instance=plaque-1
 139,
*Elset, elset=__PickedSurf12_E2, internal, instance=plaque-1
 193, 196, 213
*Elset, elset=__PickedSurf12_E1, internal, instance=plaque-1
 207,
*Surface, type=ELEMENT, name=_PickedSurf12, internal
__PickedSurf12_E3, E3
__PickedSurf12_E4, E4
__PickedSurf12_E2, E2
__PickedSurf12_E1, E1
*Elset, elset=__PickedSurf14_E3, internal, instance=plaque-1
 114,
*Elset, elset=__PickedSurf14_E2, internal, instance=plaque-1
 123, 195, 197, 202, 204
*Elset, elset=__PickedSurf14_E4, internal, instance=plaque-1
 155,
*Elset, elset=__PickedSurf14_E1, internal, instance=plaque-1
 198,
*Surface, type=ELEMENT, name=_PickedSurf14, internal
__PickedSurf14_E3, E3
__PickedSurf14_E2, E2
__PickedSurf14_E4, E4
__PickedSurf14_E1, E1
** Constraint: Constraint-1
*Coupling, constraint name=Constraint-1, ref node=_PickedSet9, surface=_PickedSurf8
*Kinematic
** Constraint: Constraint-2
*Coupling, constraint name=Constraint-2, ref node=_PickedSet11, surface=_PickedSurf10
*Kinematic
** Constraint: Constraint-3
*Coupling, constraint name=Constraint-3, ref node=_PickedSet13, surface=_PickedSurf12
*Kinematic
** Constraint: Constraint-4
*Coupling, constraint name=Constraint-4, ref node=_PickedSet15, surface=_PickedSurf14
*Kinematic
*End Assembly
** 
** MATERIALS
** 
*Material, name=acier
*Density
 7.86e-09,
*Elastic
210000., 0.26
** ----------------------------------------------------------------
** 
** STEP: analyse_modale
** 
*Step, name=analyse_modale, nlgeom=NO, perturbation
*Frequency, eigensolver=Lanczos, sim, acoustic coupling=on, normalization=mass
, , 500., , , 
** 
** BOUNDARY CONDITIONS
** 
** Name: blocage Type: Symmetry/Antisymmetry/Encastre
*Boundary
_PickedSet16, ENCASTRE
** 
** OUTPUT REQUESTS
** 
*Restart, write, frequency=0
** 
** FIELD OUTPUT: F-Output-1
** 
*Output, field
*Node Output, variable=PRESELECT
** 
** HISTORY OUTPUT: H-Output-1
** 
*Output, history
*Energy Output, variable=ALL
*End Step
