*Heading
** Job name: vibration Model name: Model-1
** Generated by: Abaqus/CAE 2025
*Preprint, echo=NO, model=NO, history=NO, contact=NO
**
** PARTS
**
*Part, name=plaque
*Node
      1,   306.282349,   93.7176437,           0.
      2,   305.110779,   90.8892136,           0.
      3,   306.282349,   88.0607834,           0.
      4,   309.110779,   86.8892136,           0.
      5,   311.939209,   88.0607834,           0.
      6,   313.110779,   90.8892136,           0.
      7,   311.939209,   93.7176437,           0.
      8,   309.110779,   94.8892136,           0.
      9,   88.0607834,   93.7176437,           0.
     10,   86.8892136,   90.8892136,           0.
     11,   88.0607834,   88.0607834,           0.
     12,   90.8892136,   86.8892136,           0.
     13,   93.7176437,   88.0607834,           0.
     14,   94.8892136,   90.8892136,           0.
     15,   93.7176437,   93.7176437,           0.
     16,   90.8892136,   94.8892136,           0.
     17,   93.7176437,   306.282349,           0.
     18,   94.8892136,   309.110779,           0.
     19,   93.7176437,   311.939209,           0.
     20,   90.8892136,   313.110779,           0.
** ... 3237 like lines cut
*Element, type=S3
  1,  197,  300,  227
  2,  202,  301,  232
  3,  116,  218,  152
  4,  305,  260,  234
  5,  287, 2825,  216
  6,  198,  228,  157
  7,  385,  502, 2860
  8,  198,  302,  228
  9, 2833,  341,  219
 10, 2836,  406,  454
 11, 2825,  321,  264
 12, 2839,  342,  273
 13, 2855,  383,  302
 14,  352,  284,  318
 15,  820,  485,  682
 16,  430,  497,  323
 17,  626, 1074,  875
 18, 2860,  382,  335
 19,  454,  392,  310
 20,  462,  510,  344
** ... 86 like lines cut
*Element, type=S4R
 107,  152,  218,  192,  119
 108,  293,  231,  268,  320
 109,  116,    5,  134,  159
 110,    3,  117,  163,  135
 111,  117,    3,    2,  150
 112,  202,  233,  263,  301
 113,   11,  123,  162,  122
 114, 2799, 2780, 2802, 2732
 115,  124,  157,   10,    9
 116,  115,  171,   16,   15
 117,  298,  235,  168,  138
 118,  136,  149,   23,   22
 119,  220, 2815,  252,  295
 120,  125,   15,   14,  156
 121, 2840,  277, 2870, 2841
 122,  178,  128,  154,  222
 123,  118,    2,    1,  147
 124,  147,  113,  177,  210
 125,  126,  156,   14,   13
 126,  122,  158,   12,   11
** ... 3131 like lines cut
*Nset, nset=_PickedSet2, internal, generate
    1,  3257,     1
*Elset, elset=_PickedSet2, internal, generate
    1,  3257,     1
** Section: tole
*Shell Section, elset=_PickedSet2, material=acier
0.5, 5
*End Part
**  
**
** ASSEMBLY
**
*Assembly, name=Assembly
**  
*Instance, name=plaque-1, part=plaque
*End Instance
**  
*Node
      1,   90.8892136,   309.110779,           0.
*Node
      2,   90.8892136,   90.8892136,           0.
*Node
      3,   309.110779,   90.8892136,           0.
*Node
      4,   309.110779,   309.110779,           0.
*Nset, nset=_PickedSet9, internal
 1,
*Nset, nset=_PickedSet11, internal
 2,
*Nset, nset=_PickedSet13, internal
 3,
*Nset, nset=_PickedSet15, internal
 4,
*Nset, nset=_PickedSet16, internal, generate
 1,  4,  1
*Elset, elset=__PickedSurf8_E3, internal, instance=plaque-1
 118, 132, 139
*Elset, elset=__PickedSurf8_E4, internal, instance=plaque-1
 181,
*Elset, elset=__PickedSurf8_E2, internal, instance=plaque-1
 221, 238, 239, 245
*Surface, type=ELEMENT, name=_PickedSurf8, internal
__PickedSurf8_E3, E3
__PickedSurf8_E4, E4
__PickedSurf8_E2, E2
*Elset, elset=__PickedSurf10_E3, internal, instance=plaque-1
 115, 116, 125, 126
*Elset, elset=__PickedSurf10_E2, internal, instance=plaque-1
 120, 223, 225, 228
*Surface, type=ELEMENT, name=_PickedSurf10, internal
__PickedSurf10_E3, E3
__PickedSurf10_E2, E2
*Elset, elset=__PickedSurf12_E2, internal, instance=plaque-1
 111, 123, 215
*Elset, elset=__PickedSurf12_E3, internal, instance=plaque-1
 127, 153
*Elset, elset=__PickedSurf12_E4, internal, instance=plaque-1
 173,
*Elset, elset=__PickedSurf12_E1, internal, instance=plaque-1
 211, 212
*Surface, type=ELEMENT, name=_PickedSurf12, internal
__PickedSurf12_E2, E2
__PickedSurf12_E3, E3
__PickedSurf12_E4, E4
__PickedSurf12_E1, E1
*Elset, elset=__PickedSurf14_E3, internal, instance=plaque-1
 130, 142, 145, 146
*Elset, elset=__PickedSurf14_E2, internal, instance=plaque-1
 213, 231, 233, 235
*Surface, type=ELEMENT, name=_PickedSurf14, internal
__PickedSurf14_E3, E3
__PickedSurf14_E2, E2
** Constraint: Constraint-1
*Coupling, constraint name=Constraint-1, ref node=_PickedSet9, surface=_PickedSurf8
*Kinematic
** Constraint: Constraint-2
*Coupling, constraint name=Constraint-2, ref node=_PickedSet11, surface=_PickedSurf10
*Kinematic
** Constraint: Constraint-3
*Coupling, constraint name=Constraint-3, ref node=_PickedSet13, surface=_PickedSurf12
*Kinematic
** Constraint: Constraint-4
*Coupling, constraint name=Constraint-4, ref node=_PickedSet15, surface=_PickedSurf14
*Kinematic
*End Assembly
** 
** MATERIALS
** 
*Material, name=acier
*Density
 7.86e-09,
*Elastic
210000., 0.26
** ----------------------------------------------------------------
** 
** STEP: analyse_modale
** 
*Step, name=analyse_modale, nlgeom=NO, perturbation
*Frequency, eigensolver=Lanczos, sim, acoustic coupling=on, normalization=mass
, , 500., , , 
** 
** BOUNDARY CONDITIONS
** 
** Name: blocage Type: Symmetry/Antisymmetry/Encastre
*Boundary
_PickedSet16, ENCASTRE
** 
** OUTPUT REQUESTS
** 
*Restart, write, frequency=0
** 
** FIELD OUTPUT: F-Output-1
** 
*Output, field
*Node Output, variable=PRESELECT
** 
** HISTORY OUTPUT: H-Output-1
** 
*Output, history
*Energy Output, variable=ALL
*End Step
