*Heading
** Job name: vibration Model name: Model-1
** Generated by: Abaqus/CAE 2025
*Preprint, echo=NO, model=NO, history=NO, contact=NO
**
** PARTS
**
*Part, name=plaque
*Node
      1,   306.612305,   93.3876877,           0.
      2,   305.440735,   90.5592651,           0.
      3,   306.612305,    87.730835,           0.
      4,   309.440735,   86.5592651,           0.
      5,   312.269165,    87.730835,           0.
      6,   313.440735,   90.5592651,           0.
      7,   312.269165,   93.3876877,           0.
      8,   309.440735,   94.5592651,           0.
      9,    87.730835,   93.3876877,           0.
     10,   86.5592651,   90.5592651,           0.
     11,    87.730835,    87.730835,           0.
     12,   90.5592651,   86.5592651,           0.
     13,   93.3876877,    87.730835,           0.
     14,   94.5592651,   90.5592651,           0.
     15,   93.3876877,   93.3876877,           0.
     16,   90.5592651,   94.5592651,           0.
     17,   93.3876877,   306.612305,           0.
     18,   94.5592651,   309.440735,           0.
     19,   93.3876877,   312.269165,           0.
     20,   90.5592651,   313.440735,           0.
** ... 3173 like lines cut
*Element, type=S3
 1,  340,  449,  400
 2,  205,  302,  235
 3,  203,  297,  232
 4, 2826,  375,  299
 5,  117,  218,  151
 6, 2858, 2800,  291
 7, 2813,  338,  220
 8,  323,  284,  251
 9,  350,  282,  315
10,  322,  408,  362
11,  436,  330,  377
12, 2842,  372,  331
13, 2841,  435,  502
14,  360,  309,  241
15,  660,  528,  593
16,  515,  582,  384
17,  659, 2891,  586
18,  613,  486,  546
19, 2968,  698,  520
20,  736,  548,  678
** ... 76 like lines cut
*Element, type=S4R
  97,  192,  218,  293,  250
  98,  289,  230,  268,  316
  99,  117,    5,  135,  158
 100,    3,  118,  162,  136
 101,  118,    3,    2,  149
 102,  203,  233,  262,  297
 103,   11,  124,  161,  123
 104, 2752, 2776, 2769, 2750
 105,  125,  156,   10,    9
 106,  114,  176,   16,   15
 107,  190,  231,  251, 2829
 108,  137,  171,   23,   22
 109,  252,  290, 2801,  169
 110,  209,  146, 2798,  271
 111,  396,  446,  462,  353
 112,  439,  450,  308,  401
 113, 2834,  276, 2867, 2835
 114,  147,  116,  177,  211
 115,  127,  155,   14,   13
 116,  123,  157,   12,   11
** ... 3072 like lines cut
*Nset, nset=_PickedSet2, internal, generate
    1,  3193,     1
*Elset, elset=_PickedSet2, internal, generate
    1,  3188,     1
** Section: tole
*Shell Section, elset=_PickedSet2, material=acier
0.5, 5
*End Part
**  
**
** ASSEMBLY
**
*Assembly, name=Assembly
**  
*Instance, name=plaque-1, part=plaque
*End Instance
**  
*Node
      1,   90.5592651,   309.440735,           0.
*Node
      2,   90.5592651,   90.5592651,           0.
*Node
      3,   309.440735,   90.5592651,           0.
*Node
      4,   309.440735,   309.440735,           0.
*Nset, nset=_PickedSet9, internal
 1,
*Nset, nset=_PickedSet11, internal
 2,
*Nset, nset=_PickedSet13, internal
 3,
*Nset, nset=_PickedSet15, internal
 4,
*Nset, nset=_PickedSet16, internal, generate
 1,  4,  1
*Elset, elset=__PickedSurf8_E3, internal, instance=plaque-1
 108, 122, 126, 128
*Elset, elset=__PickedSurf8_E2, internal, instance=plaque-1
 196, 208, 226, 227
*Surface, type=ELEMENT, name=_PickedSurf8, internal
__PickedSurf8_E3, E3
__PickedSurf8_E2, E2
*Elset, elset=__PickedSurf10_E3, internal, instance=plaque-1
 105, 106, 115, 116
*Elset, elset=__PickedSurf10_E2, internal, instance=plaque-1
 198, 210, 212, 215
*Surface, type=ELEMENT, name=_PickedSurf10, internal
__PickedSurf10_E3, E3
__PickedSurf10_E2, E2
*Elset, elset=__PickedSurf12_E2, internal, instance=plaque-1
 101, 197, 202
*Elset, elset=__PickedSurf12_E3, internal, instance=plaque-1
 117, 140
*Elset, elset=__PickedSurf12_E4, internal, instance=plaque-1
 162,
*Elset, elset=__PickedSurf12_E1, internal, instance=plaque-1
 200, 201
*Surface, type=ELEMENT, name=_PickedSurf12, internal
__PickedSurf12_E2, E2
__PickedSurf12_E3, E3
__PickedSurf12_E4, E4
__PickedSurf12_E1, E1
*Elset, elset=__PickedSurf14_E3, internal, instance=plaque-1
 120, 133, 134
*Elset, elset=__PickedSurf14_E2, internal, instance=plaque-1
 129, 218, 221, 224
*Elset, elset=__PickedSurf14_E1, internal, instance=plaque-1
 220,
*Surface, type=ELEMENT, name=_PickedSurf14, internal
__PickedSurf14_E3, E3
__PickedSurf14_E2, E2
__PickedSurf14_E1, E1
** Constraint: Constraint-1
*Coupling, constraint name=Constraint-1, ref node=_PickedSet9, surface=_PickedSurf8
*Kinematic
** Constraint: Constraint-2
*Coupling, constraint name=Constraint-2, ref node=_PickedSet11, surface=_PickedSurf10
*Kinematic
** Constraint: Constraint-3
*Coupling, constraint name=Constraint-3, ref node=_PickedSet13, surface=_PickedSurf12
*Kinematic
** Constraint: Constraint-4
*Coupling, constraint name=Constraint-4, ref node=_PickedSet15, surface=_PickedSurf14
*Kinematic
*End Assembly
** 
** MATERIALS
** 
*Material, name=acier
*Density
 7.86e-09,
*Elastic
210000., 0.26
** ----------------------------------------------------------------
** 
** STEP: analyse_modale
** 
*Step, name=analyse_modale, nlgeom=NO, perturbation
*Frequency, eigensolver=Lanczos, sim, acoustic coupling=on, normalization=mass
, , 500., , , 
** 
** BOUNDARY CONDITIONS
** 
** Name: blocage Type: Symmetry/Antisymmetry/Encastre
*Boundary
_PickedSet16, ENCASTRE
** 
** OUTPUT REQUESTS
** 
*Restart, write, frequency=0
** 
** FIELD OUTPUT: F-Output-1
** 
*Output, field
*Node Output, variable=PRESELECT
** 
** HISTORY OUTPUT: H-Output-1
** 
*Output, history
*Energy Output, variable=ALL
*End Step
