*Heading
** Job name: vibration Model name: Model-1
** Generated by: Abaqus/CAE 2025
*Preprint, echo=NO, model=NO, history=NO, contact=NO
**
** PARTS
**
*Part, name=plaque
*Node
      1,   247.282974,   152.717026,           0.
      2,   246.111389,   149.888611,           0.
      3,   247.282974,   147.060181,           0.
      4,   250.111389,   145.888611,           0.
      5,   252.939819,   147.060181,           0.
      6,   254.111389,   149.888611,           0.
      7,   252.939819,   152.717026,           0.
      8,   250.111389,   153.888611,           0.
      9,   147.060181,   152.717026,           0.
     10,   145.888611,   149.888611,           0.
     11,   147.060181,   147.060181,           0.
     12,   149.888611,   145.888611,           0.
     13,   152.717026,   147.060181,           0.
     14,   153.888611,   149.888611,           0.
     15,   152.717026,   152.717026,           0.
     16,   149.888611,   153.888611,           0.
     17,   152.717026,   247.282974,           0.
     18,   153.888611,   250.111389,           0.
     19,   152.717026,   252.939819,           0.
     20,   149.888611,   254.111389,           0.
** ... 2734 like lines cut
*Element, type=S3
  1, 2032, 1969, 2004
  2,  187,  131,  161
  3,  207,  115,  146
  4,  254,  518,  453
  5,  251,  190,  223
  6, 2386,  297,  227
  7, 2444,  509,  357
  8,  691,  495,  605
  9,  431,  277,  313
 10,  539,  396,  482
 11,  437,  321,  424
 12,  484,  345,  428
 13,  688,  588,  682
 14, 1039,  855,  946
 15,  649,  578,  492
 16,  754,  602,  688
 17, 2544,  623,  540
 18, 1132, 1034,  940
 19, 1017,  748,  835
 20, 2533, 2570,  854
** ... 82 like lines cut
*Element, type=S4R
 103,  298,  518,  254,  229
 104,  117,  165,  229,  196
 105,    5,  118,  165,  117
 106, 2403, 2405,  250,  233
 107,  119,  157,    4,    3
 108, 2436,  332, 2435,  255
 109,  121,  167,   11,   10
 110, 2201, 2384, 2309, 2337
 111,  122,  162,  121,   10
 112,  171,  220,  258, 2404
 113,  135,   22,   21,  168
 114,  155,   16,   15,  113
 115,   15,   14,  124,  144
 116,  180,  124,  148,  205
 117,  780,  617,  702,  866
 118,  114,  152,    1,    8
 119,   14,  126,  148,  124
 120,  120, 2403,  127,   12
 121,  251, 2421, 2393,  190
 122,  202,  139,  172,  221
** ... 2630 like lines cut
*Nset, nset=_PickedSet2, internal, generate
    1,  2754,     1
*Elset, elset=_PickedSet2, internal, generate
    1,  2752,     1
** Section: tole
*Shell Section, elset=_PickedSet2, material=acier
0.5, 5
*End Part
**  
**
** ASSEMBLY
**
*Assembly, name=Assembly
**  
*Instance, name=plaque-1, part=plaque
*End Instance
**  
*Node
      1,   149.888611,   250.111389,           0.
*Node
      2,   149.888611,   149.888611,           0.
*Node
      3,   250.111389,   149.888611,           0.
*Node
      4,   250.111389,   250.111389,           0.
*Nset, nset=_PickedSet9, internal
 1,
*Nset, nset=_PickedSet11, internal
 2,
*Nset, nset=_PickedSet13, internal
 3,
*Nset, nset=_PickedSet15, internal
 4,
*Nset, nset=_PickedSet16, internal, generate
 1,  4,  1
*Elset, elset=__PickedSurf8_E2, internal, instance=plaque-1
 113, 207, 226, 229
*Elset, elset=__PickedSurf8_E3, internal, instance=plaque-1
 131, 134, 203, 222
*Surface, type=ELEMENT, name=_PickedSurf8, internal
__PickedSurf8_E2, E2
__PickedSurf8_E3, E3
*Elset, elset=__PickedSurf10_E3, internal, instance=plaque-1
 109, 151
*Elset, elset=__PickedSurf10_E2, internal, instance=plaque-1
 114, 212, 213, 214
*Elset, elset=__PickedSurf10_E1, internal, instance=plaque-1
 115,
*Elset, elset=__PickedSurf10_E4, internal, instance=plaque-1
 195,
*Surface, type=ELEMENT, name=_PickedSurf10, internal
__PickedSurf10_E3, E3
__PickedSurf10_E2, E2
__PickedSurf10_E4, E4
__PickedSurf10_E1, E1
*Elset, elset=__PickedSurf12_E3, internal, instance=plaque-1
 107, 118, 141
*Elset, elset=__PickedSurf12_E4, internal, instance=plaque-1
 167,
*Elset, elset=__PickedSurf12_E1, internal, instance=plaque-1
 206, 210
*Elset, elset=__PickedSurf12_E2, internal, instance=plaque-1
 209, 216
*Surface, type=ELEMENT, name=_PickedSurf12, internal
__PickedSurf12_E3, E3
__PickedSurf12_E4, E4
__PickedSurf12_E2, E2
__PickedSurf12_E1, E1
*Elset, elset=__PickedSurf14_E3, internal, instance=plaque-1
 125, 136, 140
*Elset, elset=__PickedSurf14_E4, internal, instance=plaque-1
 165,
*Elset, elset=__PickedSurf14_E2, internal, instance=plaque-1
 208, 221, 224
*Elset, elset=__PickedSurf14_E1, internal, instance=plaque-1
 223,
*Surface, type=ELEMENT, name=_PickedSurf14, internal
__PickedSurf14_E3, E3
__PickedSurf14_E4, E4
__PickedSurf14_E2, E2
__PickedSurf14_E1, E1
** Constraint: Constraint-1
*Coupling, constraint name=Constraint-1, ref node=_PickedSet9, surface=_PickedSurf8
*Kinematic
** Constraint: Constraint-2
*Coupling, constraint name=Constraint-2, ref node=_PickedSet11, surface=_PickedSurf10
*Kinematic
** Constraint: Constraint-3
*Coupling, constraint name=Constraint-3, ref node=_PickedSet13, surface=_PickedSurf12
*Kinematic
** Constraint: Constraint-4
*Coupling, constraint name=Constraint-4, ref node=_PickedSet15, surface=_PickedSurf14
*Kinematic
*End Assembly
** 
** MATERIALS
** 
*Material, name=acier
*Density
 7.86e-09,
*Elastic
210000., 0.26
** ----------------------------------------------------------------
** 
** STEP: analyse_modale
** 
*Step, name=analyse_modale, nlgeom=NO, perturbation
*Frequency, eigensolver=Lanczos, sim, acoustic coupling=on, normalization=mass
, , 500., , , 
** 
** BOUNDARY CONDITIONS
** 
** Name: blocage Type: Symmetry/Antisymmetry/Encastre
*Boundary
_PickedSet16, ENCASTRE
** 
** OUTPUT REQUESTS
** 
*Restart, write, frequency=0
** 
** FIELD OUTPUT: F-Output-1
** 
*Output, field
*Node Output, variable=PRESELECT
** 
** HISTORY OUTPUT: H-Output-1
** 
*Output, history
*Energy Output, variable=ALL
*End Step
