*Heading
** Job name: vibration Model name: Model-1
** Generated by: Abaqus/CAE 2025
*Preprint, echo=NO, model=NO, history=NO, contact=NO
**
** PARTS
**
*Part, name=plaque
*Node
      1,   274.450592,   125.549416,           0.
      2,   273.279022,   122.720985,           0.
      3,   274.450592,   119.892563,           0.
      4,   277.279022,   118.720985,           0.
      5,   280.107452,   119.892563,           0.
      6,   281.279022,   122.720985,           0.
      7,   280.107452,   125.549416,           0.
      8,   277.279022,   126.720985,           0.
      9,   119.892563,   125.549416,           0.
     10,   118.720985,   122.720985,           0.
     11,   119.892563,   119.892563,           0.
     12,   122.720985,   118.720985,           0.
     13,   125.549416,   119.892563,           0.
     14,   126.720985,   122.720985,           0.
     15,   125.549416,   125.549416,           0.
     16,   122.720985,   126.720985,           0.
     17,   125.549416,   274.450592,           0.
     18,   126.720985,   277.279022,           0.
     19,   125.549416,   280.107452,           0.
     20,   122.720985,   281.279022,           0.
** ... 3403 like lines cut
*Element, type=S3
 1,  205,  137,  171
 2,  455,  349,  415
 3,  316,  249,  287
 4, 2982,  203,  206
 5,  243,  183,  217
 6, 2993,  193,  211
 7,  327,  378,  263
 8,  244,  336,  297
 9,  335,  300,  274
10,  451,  411,  387
11,  496,  427,  475
12,  810,  732,  650
13, 3081,  453, 3121
14, 3060,  479,  602
15, 3063,  713,  564
16,  388,  590,  407
17, 3101,  815,  643
18,  568,  635,  430
19,  577,  810,  650
20,  966,  731,  816
** ... 74 like lines cut
*Element, type=S4R
  95,  326,  376,  289,  262
  96,    5,  136,  168,  118
  97,    3,  119,  171,  137
  98,  165,  129,   13,  128
  99,  170,  258,  197,  124
 100,   11,  125,  170,  124
 101,   94, 2933, 2857,   95
 102,    9,  116,  160,  126
 103,  147,  209,  191,  116
 104,   23,  138,  146,  115
 105,  260,  160,  222,  283
 106,   24,   23,  115,  148
 107,  181,  209,  147,  142
 108,  218, 3021,  244,  185
 109,  114,  157,    8,    7
 110,  182,  151,  120, 2965
 111,  120,  151,    2,    1
 112,  124,  166,   12,   11
 113,  224,  286,  205,  171
 114,  118,  162,    6,    5
** ... 3303 like lines cut
*Nset, nset=_PickedSet2, internal, generate
    1,  3423,     1
*Elset, elset=_PickedSet2, internal, generate
    1,  3417,     1
** Section: tole
*Shell Section, elset=_PickedSet2, material=acier
0.5, 5
*End Part
**  
**
** ASSEMBLY
**
*Assembly, name=Assembly
**  
*Instance, name=plaque-1, part=plaque
*End Instance
**  
*Node
      1,   122.720985,   277.279022,           0.
*Node
      2,   122.720985,   122.720985,           0.
*Node
      3,   277.279022,   122.720985,           0.
*Node
      4,   277.279022,   277.279022,           0.
*Nset, nset=_PickedSet9, internal
 1,
*Nset, nset=_PickedSet11, internal
 2,
*Nset, nset=_PickedSet13, internal
 3,
*Nset, nset=_PickedSet15, internal
 4,
*Nset, nset=_PickedSet16, internal, generate
 1,  4,  1
*Elset, elset=__PickedSurf8_E1, internal, instance=plaque-1
 106,
*Elset, elset=__PickedSurf8_E3, internal, instance=plaque-1
 115, 119, 184
*Elset, elset=__PickedSurf8_E4, internal, instance=plaque-1
 165,
*Elset, elset=__PickedSurf8_E2, internal, instance=plaque-1
 190, 194, 200
*Surface, type=ELEMENT, name=_PickedSurf8, internal
__PickedSurf8_E1, E1
__PickedSurf8_E3, E3
__PickedSurf8_E4, E4
__PickedSurf8_E2, E2
*Elset, elset=__PickedSurf10_E3, internal, instance=plaque-1
 112, 180
*Elset, elset=__PickedSurf10_E2, internal, instance=plaque-1
 192, 202, 205, 207
*Elset, elset=__PickedSurf10_E1, internal, instance=plaque-1
 193, 206
*Surface, type=ELEMENT, name=_PickedSurf10, internal
__PickedSurf10_E3, E3
__PickedSurf10_E2, E2
__PickedSurf10_E1, E1
*Elset, elset=__PickedSurf12_E3, internal, instance=plaque-1
 109, 111, 114, 138
*Elset, elset=__PickedSurf12_E4, internal, instance=plaque-1
 156,
*Elset, elset=__PickedSurf12_E2, internal, instance=plaque-1, generate
 195,  197,    1
*Surface, type=ELEMENT, name=_PickedSurf12, internal
__PickedSurf12_E3, E3
__PickedSurf12_E4, E4
__PickedSurf12_E2, E2
*Elset, elset=__PickedSurf14_E3, internal, instance=plaque-1
 127, 153
*Elset, elset=__PickedSurf14_E2, internal, instance=plaque-1
 188, 209, 211, 213
*Elset, elset=__PickedSurf14_E1, internal, instance=plaque-1
 189, 210
*Surface, type=ELEMENT, name=_PickedSurf14, internal
__PickedSurf14_E3, E3
__PickedSurf14_E2, E2
__PickedSurf14_E1, E1
** Constraint: Constraint-1
*Coupling, constraint name=Constraint-1, ref node=_PickedSet9, surface=_PickedSurf8
*Kinematic
** Constraint: Constraint-2
*Coupling, constraint name=Constraint-2, ref node=_PickedSet11, surface=_PickedSurf10
*Kinematic
** Constraint: Constraint-3
*Coupling, constraint name=Constraint-3, ref node=_PickedSet13, surface=_PickedSurf12
*Kinematic
** Constraint: Constraint-4
*Coupling, constraint name=Constraint-4, ref node=_PickedSet15, surface=_PickedSurf14
*Kinematic
*End Assembly
** 
** MATERIALS
** 
*Material, name=acier
*Density
 7.86e-09,
*Elastic
210000., 0.26
** ----------------------------------------------------------------
** 
** STEP: analyse_modale
** 
*Step, name=analyse_modale, nlgeom=NO, perturbation
*Frequency, eigensolver=Lanczos, sim, acoustic coupling=on, normalization=mass
, , 500., , , 
** 
** BOUNDARY CONDITIONS
** 
** Name: blocage Type: Symmetry/Antisymmetry/Encastre
*Boundary
_PickedSet16, ENCASTRE
** 
** OUTPUT REQUESTS
** 
*Restart, write, frequency=0
** 
** FIELD OUTPUT: F-Output-1
** 
*Output, field
*Node Output, variable=PRESELECT
** 
** HISTORY OUTPUT: H-Output-1
** 
*Output, history
*Energy Output, variable=ALL
*End Step
