*Heading
** Job name: vibration Model name: Model-1
** Generated by: Abaqus/CAE 2025
*Preprint, echo=NO, model=NO, history=NO, contact=NO
**
** PARTS
**
*Part, name=plaque
*Node
      1,   221.577271,   178.422729,           0.
      2,   220.405685,   175.594315,           0.
      3,   221.577271,   172.765884,           0.
      4,   224.405685,   171.594315,           0.
      5,   227.234116,   172.765884,           0.
      6,   228.405685,   175.594315,           0.
      7,   227.234116,   178.422729,           0.
      8,   224.405685,   179.594315,           0.
      9,   172.765884,   178.422729,           0.
     10,   171.594315,   175.594315,           0.
     11,   172.765884,   172.765884,           0.
     12,   175.594315,   171.594315,           0.
     13,   178.422729,   172.765884,           0.
     14,   179.594315,   175.594315,           0.
     15,   178.422729,   178.422729,           0.
     16,   175.594315,   179.594315,           0.
     17,   178.422729,   221.577271,           0.
     18,   179.594315,   224.405685,           0.
     19,   178.422729,   227.234116,           0.
     20,   175.594315,   228.405685,           0.
** ... 1841 like lines cut
*Element, type=S3
 1,  185,  242,  160
 2,  588,  518,  410
 3,  291,  209,  252
 4,  329,  248,  279
 5, 1642,  445,  321
 6,  339,  229,  284
 7,  343,  226,  288
 8, 1645,  392,  287
 9, 1678, 1709,  326
10,  951,  519,  623
11, 1624, 1625,  336
12,  500,  417,  420
13,  797,  555,  684
14, 1640, 1672,  405
15,  594,  438,  512
16,  591,  437,  511
17,  590,  599,  660
18,  666,  522,  439
19,  721,  579,  654
20,  821,  719,  777
** ... 56 like lines cut
*Element, type=S4R
  77,  276,  204,  254,  398
  78,  290,  537,  349,  291
  79,  118,  162,    5,    4
  80,  295,  167,  127,  216
  81,  126,  149,   13,   12
  82,  210,  251, 1652,  299
  83,  120,  164,   11,   10
  84,  215,  294,  170,  121
  85, 1362, 1610, 1471, 1475
  86,   10,  121,  170,  120
  87,    9,   16,  141,  175
  88,   23,   22,  122,  161
  89,   16,  113,  159,  141
  90,  155,  123,   14,  125
  91,  417,  568,  643,  496
  92,  123,  145,   15,   14
  93,  114,  150,    1,    8
  94,   12,  119,  172,  126
  95,  207,  129,  156,  246
  96,    2,  124,  156,  129
** ... 1750 like lines cut
*Nset, nset=_PickedSet2, internal, generate
    1,  1861,     1
*Elset, elset=_PickedSet2, internal, generate
    1,  1846,     1
** Section: tole
*Shell Section, elset=_PickedSet2, material=acier
0.5, 5
*End Part
**  
**
** ASSEMBLY
**
*Assembly, name=Assembly
**  
*Instance, name=plaque-1, part=plaque
*End Instance
**  
*Node
      1,   175.594315,   224.405685,           0.
*Node
      2,   175.594315,   175.594315,           0.
*Node
      3,   224.405685,   175.594315,           0.
*Node
      4,   224.405685,   224.405685,           0.
*Nset, nset=_PickedSet9, internal
 1,
*Nset, nset=_PickedSet11, internal
 2,
*Nset, nset=_PickedSet13, internal
 3,
*Nset, nset=_PickedSet15, internal
 4,
*Nset, nset=_PickedSet16, internal, generate
 1,  4,  1
*Elset, elset=__PickedSurf8_E1, internal, instance=plaque-1
 88,
*Elset, elset=__PickedSurf8_E3, internal, instance=plaque-1
 105, 108
*Elset, elset=__PickedSurf8_E4, internal, instance=plaque-1
 175,
*Elset, elset=__PickedSurf8_E2, internal, instance=plaque-1
 183, 210, 212, 214
*Surface, type=ELEMENT, name=_PickedSurf8, internal
__PickedSurf8_E1, E1
__PickedSurf8_E3, E3
__PickedSurf8_E4, E4
__PickedSurf8_E2, E2
*Elset, elset=__PickedSurf10_E3, internal, instance=plaque-1
 81, 83, 92
*Elset, elset=__PickedSurf10_E1, internal, instance=plaque-1
 87,
*Elset, elset=__PickedSurf10_E2, internal, instance=plaque-1
 181, 189, 190, 195
*Surface, type=ELEMENT, name=_PickedSurf10, internal
__PickedSurf10_E3, E3
__PickedSurf10_E1, E1
__PickedSurf10_E2, E2
*Elset, elset=__PickedSurf12_E3, internal, instance=plaque-1
  79,  93, 118, 199
*Elset, elset=__PickedSurf12_E2, internal, instance=plaque-1
 182, 186, 187, 197
*Surface, type=ELEMENT, name=_PickedSurf12, internal
__PickedSurf12_E3, E3
__PickedSurf12_E2, E2
*Elset, elset=__PickedSurf14_E3, internal, instance=plaque-1
  98, 100
*Elset, elset=__PickedSurf14_E2, internal, instance=plaque-1
 115, 185, 202, 206
*Elset, elset=__PickedSurf14_E4, internal, instance=plaque-1
 140,
*Elset, elset=__PickedSurf14_E1, internal, instance=plaque-1
 184,
*Surface, type=ELEMENT, name=_PickedSurf14, internal
__PickedSurf14_E3, E3
__PickedSurf14_E2, E2
__PickedSurf14_E4, E4
__PickedSurf14_E1, E1
** Constraint: Constraint-1
*Coupling, constraint name=Constraint-1, ref node=_PickedSet9, surface=_PickedSurf8
*Kinematic
** Constraint: Constraint-2
*Coupling, constraint name=Constraint-2, ref node=_PickedSet11, surface=_PickedSurf10
*Kinematic
** Constraint: Constraint-3
*Coupling, constraint name=Constraint-3, ref node=_PickedSet13, surface=_PickedSurf12
*Kinematic
** Constraint: Constraint-4
*Coupling, constraint name=Constraint-4, ref node=_PickedSet15, surface=_PickedSurf14
*Kinematic
*End Assembly
** 
** MATERIALS
** 
*Material, name=acier
*Density
 7.86e-09,
*Elastic
210000., 0.26
** ----------------------------------------------------------------
** 
** STEP: analyse_modale
** 
*Step, name=analyse_modale, nlgeom=NO, perturbation
*Frequency, eigensolver=Lanczos, sim, acoustic coupling=on, normalization=mass
, , 500., , , 
** 
** BOUNDARY CONDITIONS
** 
** Name: blocage Type: Symmetry/Antisymmetry/Encastre
*Boundary
_PickedSet16, ENCASTRE
** 
** OUTPUT REQUESTS
** 
*Restart, write, frequency=0
** 
** FIELD OUTPUT: F-Output-1
** 
*Output, field
*Node Output, variable=PRESELECT
** 
** HISTORY OUTPUT: H-Output-1
** 
*Output, history
*Energy Output, variable=ALL
*End Step
