*Heading
** Job name: vibration Model name: Model-1
** Generated by: Abaqus/CAE 2025
*Preprint, echo=NO, model=NO, history=NO, contact=NO
**
** PARTS
**
*Part, name=plaque
*Node
      1,     264.8909,     135.1091,           0.
      2,    263.71933,    132.28067,           0.
      3,     264.8909,    129.45224,           0.
      4,    267.71933,    128.28067,           0.
      5,    270.54776,    129.45224,           0.
      6,    271.71933,    132.28067,           0.
      7,    270.54776,     135.1091,           0.
      8,    267.71933,    136.28067,           0.
      9,    129.45224,     135.1091,           0.
     10,    128.28067,    132.28067,           0.
     11,    129.45224,    129.45224,           0.
     12,    132.28067,    128.28067,           0.
     13,     135.1091,    129.45224,           0.
     14,    136.28067,    132.28067,           0.
     15,     135.1091,     135.1091,           0.
     16,    132.28067,    136.28067,           0.
     17,     135.1091,     264.8909,           0.
     18,    136.28067,    267.71933,           0.
     19,     135.1091,    270.54776,           0.
     20,    132.28067,    271.71933,           0.
** ... 3261 like lines cut
*Element, type=S3
  1,  197,  121,  167
  2,  205,  133,  160
  3,  117,  225,  162
  4,  250,  188,  236
  5,  249,  189,  235
  6, 2730,  221,  289
  7,  382, 2717,  297
  8,  384, 2726,  298
  9, 2743,  337,  243
 10,  869,  711,  791
 11,  870,  712,  792
 12, 2839,  601,  469
 13,  386,  306,  338
 14,  452,  527,  385
 15,  484,  427,  480
 16,  505,  322,  367
 17,  456,  399,  355
 18,  461,  309,  393
 19, 2747,  353,  276
 20,  472,  333,  416
** ... 102 like lines cut
*Element, type=S4R
 123,  190,  120,  162,  225
 124, 2732,  321,  286,  257
 125,  262, 2755,  226,  200
 126,    5,  134,  170,  117
 127, 2781,  325,  262,  230
 128,    3,  119,  171,  135
 129,  327, 2795,  263,  289
 130,  258,  292,  323,  287
 131,  124,  169,  123,   11
 132,  377, 2768, 2767, 2788
 133,   94, 2670, 2569,   95
 134,    9,  115,  158,  125
 135,  324,  378,  260, 2765
 136,   23,  136,  144,  113
 137,   15,  126,  155,  141
 138,  145,  207,  192,  115
 139,  141,  155, 2737,  185
 140,   17,  140,  149,  139
 141,  116,  157,    8,    7
 142,  127,  148,   14,   13
** ... 3147 like lines cut
*Nset, nset=_PickedSet2, internal, generate
    1,  3281,     1
*Elset, elset=_PickedSet2, internal, generate
    1,  3289,     1
** Section: tole
*Shell Section, elset=_PickedSet2, material=acier
0.5, 5
*End Part
**  
**
** ASSEMBLY
**
*Assembly, name=Assembly
**  
*Instance, name=plaque-1, part=plaque
*End Instance
**  
*Node
      1,    132.28067,    267.71933,           0.
*Node
      2,    132.28067,    132.28067,           0.
*Node
      3,    267.71933,    132.28067,           0.
*Node
      4,    267.71933,    267.71933,           0.
*Nset, nset=_PickedSet9, internal
 1,
*Nset, nset=_PickedSet11, internal
 2,
*Nset, nset=_PickedSet13, internal
 3,
*Nset, nset=_PickedSet15, internal
 4,
*Nset, nset=_PickedSet16, internal, generate
 1,  4,  1
*Elset, elset=__PickedSurf8_E3, internal, instance=plaque-1
 149, 154, 158, 216
*Elset, elset=__PickedSurf8_E4, internal, instance=plaque-1
 153,
*Elset, elset=__PickedSurf8_E2, internal, instance=plaque-1
 221, 232, 254
*Surface, type=ELEMENT, name=_PickedSurf8, internal
__PickedSurf8_E3, E3
__PickedSurf8_E4, E4
__PickedSurf8_E2, E2
*Elset, elset=__PickedSurf10_E3, internal, instance=plaque-1
 142, 145, 210
*Elset, elset=__PickedSurf10_E2, internal, instance=plaque-1
 224, 234, 237, 238
*Elset, elset=__PickedSurf10_E1, internal, instance=plaque-1
 225,
*Surface, type=ELEMENT, name=_PickedSurf10, internal
__PickedSurf10_E3, E3
__PickedSurf10_E2, E2
__PickedSurf10_E1, E1
*Elset, elset=__PickedSurf12_E3, internal, instance=plaque-1
 141, 146, 147, 173
*Elset, elset=__PickedSurf12_E4, internal, instance=plaque-1
 189,
*Elset, elset=__PickedSurf12_E2, internal, instance=plaque-1
 226, 227, 229
*Surface, type=ELEMENT, name=_PickedSurf12, internal
__PickedSurf12_E3, E3
__PickedSurf12_E4, E4
__PickedSurf12_E2, E2
*Elset, elset=__PickedSurf14_E3, internal, instance=plaque-1
 150, 161, 187
*Elset, elset=__PickedSurf14_E2, internal, instance=plaque-1
 222, 241, 242, 245
*Elset, elset=__PickedSurf14_E1, internal, instance=plaque-1
 223,
*Surface, type=ELEMENT, name=_PickedSurf14, internal
__PickedSurf14_E3, E3
__PickedSurf14_E2, E2
__PickedSurf14_E1, E1
** Constraint: Constraint-1
*Coupling, constraint name=Constraint-1, ref node=_PickedSet9, surface=_PickedSurf8
*Kinematic
** Constraint: Constraint-2
*Coupling, constraint name=Constraint-2, ref node=_PickedSet11, surface=_PickedSurf10
*Kinematic
** Constraint: Constraint-3
*Coupling, constraint name=Constraint-3, ref node=_PickedSet13, surface=_PickedSurf12
*Kinematic
** Constraint: Constraint-4
*Coupling, constraint name=Constraint-4, ref node=_PickedSet15, surface=_PickedSurf14
*Kinematic
*End Assembly
** 
** MATERIALS
** 
*Material, name=acier
*Density
 7.86e-09,
*Elastic
210000., 0.26
** ----------------------------------------------------------------
** 
** STEP: analyse_modale
** 
*Step, name=analyse_modale, nlgeom=NO, perturbation
*Frequency, eigensolver=Lanczos, sim, acoustic coupling=on, normalization=mass
, , 500., , , 
** 
** BOUNDARY CONDITIONS
** 
** Name: blocage Type: Symmetry/Antisymmetry/Encastre
*Boundary
_PickedSet16, ENCASTRE
** 
** OUTPUT REQUESTS
** 
*Restart, write, frequency=0
** 
** FIELD OUTPUT: F-Output-1
** 
*Output, field
*Node Output, variable=PRESELECT
** 
** HISTORY OUTPUT: H-Output-1
** 
*Output, history
*Energy Output, variable=ALL
*End Step
