*Heading
** Job name: vibration Model name: Model-1
** Generated by: Abaqus/CAE 2025
*Preprint, echo=NO, model=NO, history=NO, contact=NO
**
** PARTS
**
*Part, name=plaque
*Node
      1,   249.561539,   150.438461,           0.
      2,   248.389969,   147.610031,           0.
      3,   249.561539,   144.781616,           0.
      4,   252.389969,   143.610031,           0.
      5,   255.218384,   144.781616,           0.
      6,   256.389954,   147.610031,           0.
      7,   255.218384,   150.438461,           0.
      8,   252.389969,   151.610031,           0.
      9,   144.781616,   150.438461,           0.
     10,   143.610031,   147.610031,           0.
     11,   144.781616,   144.781616,           0.
     12,   147.610031,   143.610031,           0.
     13,   150.438461,   144.781616,           0.
     14,   151.610031,   147.610031,           0.
     15,   150.438461,   150.438461,           0.
     16,   147.610031,   151.610031,           0.
     17,   150.438461,   249.561539,           0.
     18,   151.610031,   252.389969,           0.
     19,   150.438461,   255.218384,           0.
     20,   147.610031,   256.389954,           0.
** ... 2957 like lines cut
*Element, type=S3
 1,  224, 2491,  164
 2, 2485,  232,  168
 3, 2486,  208,  151
 4,  761,  591,  697
 5, 2506,  282,  223
 6,  331,  371,  265
 7,  390, 2528,  298
 8, 2581,  311,  349
 9,  435,  295,  328
10, 2545,  456,  531
11, 2591,  694,  521
12, 2529,  466,  339
13,  474,  424,  392
14,  597, 2702,  779
15, 2604,  500,  593
16,  472,  552,  359
17,  583,  482,  485
18,  879,  599,  661
19, 2583,  576,  466
20,  631,  561,  465
** ... 76 like lines cut
*Element, type=S4R
  97,  693,  853,  618,  518
  98,  167,  131,    6,  117
  99, 2500,  196,  262, 2539
 100,  294,  262,  327,  381
 101,  118,  161,    5,    4
 102,  119,  169,    4,    3
 103,  170,  134,  227,  251
 104,  192,  121,  149,  217
 105,  370,  264,  329,  409
 106,    3,  121,  160,  119
 107,  122,  149,    2,    1
 108,  116,  155,    8,    7
 109,  137,  150,  136,   18
 110,  151,   30,  124, 2486
 111,  145,   29,  125,  216
 112,  296,  236, 2497, 2498
 113,   28,  173,  125,   29
 114,  172,  226,  199,  127
 115,  166,  172,   20,   19
 116,  266, 2517,  330,  297
** ... 2856 like lines cut
*Nset, nset=_PickedSet2, internal, generate
    1,  2977,     1
*Elset, elset=_PickedSet2, internal, generate
    1,  2972,     1
** Section: tole
*Shell Section, elset=_PickedSet2, material=acier
0.5, 5
*End Part
**  
**
** ASSEMBLY
**
*Assembly, name=Assembly
**  
*Instance, name=plaque-1, part=plaque
*End Instance
**  
*Node
      1,   147.610031,   252.389969,           0.
*Node
      2,   147.610031,   147.610031,           0.
*Node
      3,   252.389969,   147.610031,           0.
*Node
      4,   252.389969,   252.389969,           0.
*Nset, nset=_PickedSet9, internal
 1,
*Nset, nset=_PickedSet11, internal
 2,
*Nset, nset=_PickedSet13, internal
 3,
*Nset, nset=_PickedSet15, internal
 4,
*Nset, nset=_PickedSet16, internal, generate
 1,  4,  1
*Elset, elset=__PickedSurf8_E3, internal, instance=plaque-1
 115, 137, 211
*Elset, elset=__PickedSurf8_E4, internal, instance=plaque-1
 119, 193
*Elset, elset=__PickedSurf8_E2, internal, instance=plaque-1
 215, 224, 226
*Surface, type=ELEMENT, name=_PickedSurf8, internal
__PickedSurf8_E3, E3
__PickedSurf8_E4, E4
__PickedSurf8_E2, E2
*Elset, elset=__PickedSurf10_E2, internal, instance=plaque-1
 121, 206, 219, 220
*Elset, elset=__PickedSurf10_E4, internal, instance=plaque-1
 123, 190
*Elset, elset=__PickedSurf10_E3, internal, instance=plaque-1
 130,
*Elset, elset=__PickedSurf10_E1, internal, instance=plaque-1
 132,
*Surface, type=ELEMENT, name=_PickedSurf10, internal
__PickedSurf10_E2, E2
__PickedSurf10_E4, E4
__PickedSurf10_E3, E3
__PickedSurf10_E1, E1
*Elset, elset=__PickedSurf12_E3, internal, instance=plaque-1
 101, 102, 107, 108
*Elset, elset=__PickedSurf12_E1, internal, instance=plaque-1
 201,
*Elset, elset=__PickedSurf12_E2, internal, instance=plaque-1
 202, 204, 207
*Surface, type=ELEMENT, name=_PickedSurf12, internal
__PickedSurf12_E3, E3
__PickedSurf12_E1, E1
__PickedSurf12_E2, E2
*Elset, elset=__PickedSurf14_E4, internal, instance=plaque-1
 113,
*Elset, elset=__PickedSurf14_E3, internal, instance=plaque-1
 139, 163
*Elset, elset=__PickedSurf14_E2, internal, instance=plaque-1
 199, 209, 210, 212
*Elset, elset=__PickedSurf14_E1, internal, instance=plaque-1
 200,
*Surface, type=ELEMENT, name=_PickedSurf14, internal
__PickedSurf14_E4, E4
__PickedSurf14_E3, E3
__PickedSurf14_E2, E2
__PickedSurf14_E1, E1
** Constraint: Constraint-1
*Coupling, constraint name=Constraint-1, ref node=_PickedSet9, surface=_PickedSurf8
*Kinematic
** Constraint: Constraint-2
*Coupling, constraint name=Constraint-2, ref node=_PickedSet11, surface=_PickedSurf10
*Kinematic
** Constraint: Constraint-3
*Coupling, constraint name=Constraint-3, ref node=_PickedSet13, surface=_PickedSurf12
*Kinematic
** Constraint: Constraint-4
*Coupling, constraint name=Constraint-4, ref node=_PickedSet15, surface=_PickedSurf14
*Kinematic
*End Assembly
** 
** MATERIALS
** 
*Material, name=acier
*Density
 7.86e-09,
*Elastic
210000., 0.26
** ----------------------------------------------------------------
** 
** STEP: analyse_modale
** 
*Step, name=analyse_modale, nlgeom=NO, perturbation
*Frequency, eigensolver=Lanczos, sim, acoustic coupling=on, normalization=mass
, , 500., , , 
** 
** BOUNDARY CONDITIONS
** 
** Name: blocage Type: Symmetry/Antisymmetry/Encastre
*Boundary
_PickedSet16, ENCASTRE
** 
** OUTPUT REQUESTS
** 
*Restart, write, frequency=0
** 
** FIELD OUTPUT: F-Output-1
** 
*Output, field
*Node Output, variable=PRESELECT
** 
** HISTORY OUTPUT: H-Output-1
** 
*Output, history
*Energy Output, variable=ALL
*End Step
