*Heading
** Job name: vibration Model name: Model-1
** Generated by: Abaqus/CAE 2025
*Preprint, echo=NO, model=NO, history=NO, contact=NO
**
** PARTS
**
*Part, name=plaque
*Node
      1,    303.59668,   96.4033356,           0.
      2,    302.42511,   93.5749054,           0.
      3,    303.59668,   90.7464752,           0.
      4,    306.42511,   89.5749054,           0.
      5,    309.25351,   90.7464752,           0.
      6,    310.42511,   93.5749054,           0.
      7,    309.25351,   96.4033356,           0.
      8,    306.42511,   97.5749054,           0.
      9,   90.7464752,   96.4033356,           0.
     10,   89.5749054,   93.5749054,           0.
     11,   90.7464752,   90.7464752,           0.
     12,   93.5749054,   89.5749054,           0.
     13,   96.4033356,   90.7464752,           0.
     14,   97.5749054,   93.5749054,           0.
     15,   96.4033356,   96.4033356,           0.
     16,   93.5749054,   97.5749054,           0.
     17,   96.4033356,    303.59668,           0.
     18,   97.5749054,    306.42511,           0.
     19,   96.4033356,    309.25351,           0.
     20,   93.5749054,    310.42511,           0.
** ... 3365 like lines cut
*Element, type=S3
  1,  262,  200,  235
  2,  118,  233,  153
  3,  201,  297,  232
  4,  225,  160,  197
  5,  266,  238,  205
  6, 2962,  379,  302
  7, 3022,  557, 3025
  8,  298,  225,  197
  9, 2955,  339,  240
 10, 2941,  402,  447
 11,  692,  629,  563
 12, 2995, 2974,  332
 13, 2951,  341,  273
 14, 2944,  340,  272
 15, 2960,  342,  274
 16,  492,  286,  316
 17, 2947,  375,  298
 18,  415,  327,  381
 19,  462,  392,  352
 20,  393,  337, 2987
** ... 94 like lines cut
*Element, type=S4R
 115,  118,  162,  260,  233
 116,  286,  325,  260,  228
 117,  118,    5,  136,  162
 118,  137,    3,  119,  167
 119,  119,    3,    2,  154
 120,  201,  234,  261,  297
 121,   11,  125,  165,  124
 122, 1938, 1109, 2852, 2885
 123,  126,  160,   10,    9
 124,  117,  174,   16,   15
 125,  166,  206,  170,  139
 126,  116,  149,   24,   23
 127,  221, 2920,  254,  291
 128,  449,  355, 3038, 3041
 129,  114,  175,    8,    7
 130,  183,  222,  159,  128
 131,  120,  154,    2,    1
 132,  128,  159,   14,   13
 133,  128,   13,  129,  163
 134,  123,  153,  233,  198
** ... 3255 like lines cut
*Nset, nset=_PickedSet2, internal, generate
    1,  3385,     1
*Elset, elset=_PickedSet2, internal, generate
    1,  3389,     1
** Section: tole
*Shell Section, elset=_PickedSet2, material=acier
0.5, 5
*End Part
**  
**
** ASSEMBLY
**
*Assembly, name=Assembly
**  
*Instance, name=plaque-1, part=plaque
*End Instance
**  
*Node
      1,   93.5749054,    306.42511,           0.
*Node
      2,   93.5749054,   93.5749054,           0.
*Node
      3,    306.42511,   93.5749054,           0.
*Node
      4,    306.42511,    306.42511,           0.
*Nset, nset=_PickedSet9, internal
 1,
*Nset, nset=_PickedSet11, internal
 2,
*Nset, nset=_PickedSet13, internal
 3,
*Nset, nset=_PickedSet15, internal
 4,
*Nset, nset=_PickedSet16, internal, generate
 1,  4,  1
*Elset, elset=__PickedSurf8_E3, internal, instance=plaque-1
 126, 138, 140, 213
*Elset, elset=__PickedSurf8_E2, internal, instance=plaque-1
 145, 222
*Elset, elset=__PickedSurf8_E4, internal, instance=plaque-1
 186,
*Elset, elset=__PickedSurf8_E1, internal, instance=plaque-1
 243,
*Surface, type=ELEMENT, name=_PickedSurf8, internal
__PickedSurf8_E3, E3
__PickedSurf8_E2, E2
__PickedSurf8_E4, E4
__PickedSurf8_E1, E1
*Elset, elset=__PickedSurf10_E3, internal, instance=plaque-1
 123, 124, 132, 164
*Elset, elset=__PickedSurf10_E2, internal, instance=plaque-1
 224, 231, 232, 235
*Surface, type=ELEMENT, name=_PickedSurf10, internal
__PickedSurf10_E3, E3
__PickedSurf10_E2, E2
*Elset, elset=__PickedSurf12_E2, internal, instance=plaque-1
 119, 152, 225, 227
*Elset, elset=__PickedSurf12_E3, internal, instance=plaque-1
 129, 131, 157, 181
*Surface, type=ELEMENT, name=_PickedSurf12, internal
__PickedSurf12_E2, E2
__PickedSurf12_E3, E3
*Elset, elset=__PickedSurf14_E3, internal, instance=plaque-1
 136, 174, 195
*Elset, elset=__PickedSurf14_E4, internal, instance=plaque-1
 137,
*Elset, elset=__PickedSurf14_E2, internal, instance=plaque-1
 151, 237, 239
*Elset, elset=__PickedSurf14_E1, internal, instance=plaque-1
 219,
*Surface, type=ELEMENT, name=_PickedSurf14, internal
__PickedSurf14_E3, E3
__PickedSurf14_E4, E4
__PickedSurf14_E2, E2
__PickedSurf14_E1, E1
** Constraint: Constraint-1
*Coupling, constraint name=Constraint-1, ref node=_PickedSet9, surface=_PickedSurf8
*Kinematic
** Constraint: Constraint-2
*Coupling, constraint name=Constraint-2, ref node=_PickedSet11, surface=_PickedSurf10
*Kinematic
** Constraint: Constraint-3
*Coupling, constraint name=Constraint-3, ref node=_PickedSet13, surface=_PickedSurf12
*Kinematic
** Constraint: Constraint-4
*Coupling, constraint name=Constraint-4, ref node=_PickedSet15, surface=_PickedSurf14
*Kinematic
*End Assembly
** 
** MATERIALS
** 
*Material, name=acier
*Density
 7.86e-09,
*Elastic
210000., 0.26
** ----------------------------------------------------------------
** 
** STEP: analyse_modale
** 
*Step, name=analyse_modale, nlgeom=NO, perturbation
*Frequency, eigensolver=Lanczos, sim, acoustic coupling=on, normalization=mass
, , 500., , , 
** 
** BOUNDARY CONDITIONS
** 
** Name: blocage Type: Symmetry/Antisymmetry/Encastre
*Boundary
_PickedSet16, ENCASTRE
** 
** OUTPUT REQUESTS
** 
*Restart, write, frequency=0
** 
** FIELD OUTPUT: F-Output-1
** 
*Output, field
*Node Output, variable=PRESELECT
** 
** HISTORY OUTPUT: H-Output-1
** 
*Output, history
*Energy Output, variable=ALL
*End Step
