*Heading
** Job name: vibration Model name: Model-1
** Generated by: Abaqus/CAE 2025
*Preprint, echo=NO, model=NO, history=NO, contact=NO
**
** PARTS
**
*Part, name=plaque
*Node
      1,   285.251129,   114.748871,           0.
      2,   284.079559,   111.920441,           0.
      3,   285.251129,    109.09201,           0.
      4,   288.079559,   107.920441,           0.
      5,    290.90799,    109.09201,           0.
      6,   292.079559,   111.920441,           0.
      7,    290.90799,   114.748871,           0.
      8,   288.079559,   115.920441,           0.
      9,    109.09201,   114.748871,           0.
     10,   107.920441,   111.920441,           0.
     11,    109.09201,    109.09201,           0.
     12,   111.920441,   107.920441,           0.
     13,   114.748871,    109.09201,           0.
     14,   115.920441,   111.920441,           0.
     15,   114.748871,   114.748871,           0.
     16,   111.920441,   115.920441,           0.
     17,   114.748871,   285.251129,           0.
     18,   115.920441,   288.079559,           0.
     19,   114.748871,    290.90799,           0.
     20,   111.920441,   292.079559,           0.
** ... 3629 like lines cut
*Element, type=S3
  1,  193,  117,  158
  2,  234,  162,  200
  3,  265,  205,  217
  4,  295,  334,  232
  5,  284,  186,  223
  6,  263,  203,  220
  7,  237,  204,  166
  8, 3130,  429,  325
  9, 3121,  286,  221
 10, 3140,  373,  290
 11,  345,  302,  238
 12, 3139,  355,  306
 13, 3127,  356,  309
 14,  714,  509,  584
 15,  594,  466,  531
 16, 3192,  723,  564
 17, 3225,  715,  784
 18,  861,  632,  724
 19, 3244,  595,  467
 20,  639,  501,  567
** ... 100 like lines cut
*Element, type=S4R
 121,  120,    6,  149,  197
 122,  219,  327,  371,  288
 123,  266,  291,  231,  204
 124,  207,  135,  159,  218
 125,  118,  159,    3,    2
 126,  155,  128,   10,  124
 127,   54, 3057, 3020,   55
 128,  262,  201,  221,  286
 129,  176,  143,  114,  184
 130,  170,  136,  191, 3137
 131,  136,  170,   23,   22
 132,  183,  141,  170, 3137
 133,  228,  173, 3119,  301
 134,  146,  208,  185,  115
 135,  182,  299,  226,  156
 136,  116,  147,    1,    8
 137,  126,  156,   14,   13
 138,  123,  157,   12,   11
 139,  117,  149,    6,    5
 140,  139,  168,  137,   18
** ... 3516 like lines cut
*Nset, nset=_PickedSet2, internal, generate
    1,  3649,     1
*Elset, elset=_PickedSet2, internal, generate
    1,  3656,     1
** Section: tole
*Shell Section, elset=_PickedSet2, material=acier
0.5, 5
*End Part
**  
**
** ASSEMBLY
**
*Assembly, name=Assembly
**  
*Instance, name=plaque-1, part=plaque
*End Instance
**  
*Node
      1,   111.920441,   288.079559,           0.
*Node
      2,   111.920441,   111.920441,           0.
*Node
      3,   288.079559,   111.920441,           0.
*Node
      4,   288.079559,   288.079559,           0.
*Nset, nset=_PickedSet9, internal
 1,
*Nset, nset=_PickedSet11, internal
 2,
*Nset, nset=_PickedSet13, internal
 3,
*Nset, nset=_PickedSet15, internal
 4,
*Nset, nset=_PickedSet16, internal, generate
 1,  4,  1
*Elset, elset=__PickedSurf8_E3, internal, instance=plaque-1
 131, 144, 148, 151
*Elset, elset=__PickedSurf8_E2, internal, instance=plaque-1
 217, 230, 245, 247
*Surface, type=ELEMENT, name=_PickedSurf8, internal
__PickedSurf8_E3, E3
__PickedSurf8_E2, E2
*Elset, elset=__PickedSurf10_E3, internal, instance=plaque-1
 137, 138, 208
*Elset, elset=__PickedSurf10_E1, internal, instance=plaque-1
 219, 231
*Elset, elset=__PickedSurf10_E2, internal, instance=plaque-1
 220, 232, 234
*Surface, type=ELEMENT, name=_PickedSurf10, internal
__PickedSurf10_E3, E3
__PickedSurf10_E1, E1
__PickedSurf10_E2, E2
*Elset, elset=__PickedSurf12_E3, internal, instance=plaque-1
 125, 136, 139, 159
*Elset, elset=__PickedSurf12_E2, internal, instance=plaque-1
 223, 224, 225, 244
*Surface, type=ELEMENT, name=_PickedSurf12, internal
__PickedSurf12_E3, E3
__PickedSurf12_E2, E2
*Elset, elset=__PickedSurf14_E3, internal, instance=plaque-1
 142, 180
*Elset, elset=__PickedSurf14_E1, internal, instance=plaque-1
 152, 240
*Elset, elset=__PickedSurf14_E4, internal, instance=plaque-1
 196,
*Elset, elset=__PickedSurf14_E2, internal, instance=plaque-1
 222, 237, 242
*Surface, type=ELEMENT, name=_PickedSurf14, internal
__PickedSurf14_E3, E3
__PickedSurf14_E1, E1
__PickedSurf14_E4, E4
__PickedSurf14_E2, E2
** Constraint: Constraint-1
*Coupling, constraint name=Constraint-1, ref node=_PickedSet9, surface=_PickedSurf8
*Kinematic
** Constraint: Constraint-2
*Coupling, constraint name=Constraint-2, ref node=_PickedSet11, surface=_PickedSurf10
*Kinematic
** Constraint: Constraint-3
*Coupling, constraint name=Constraint-3, ref node=_PickedSet13, surface=_PickedSurf12
*Kinematic
** Constraint: Constraint-4
*Coupling, constraint name=Constraint-4, ref node=_PickedSet15, surface=_PickedSurf14
*Kinematic
*End Assembly
** 
** MATERIALS
** 
*Material, name=acier
*Density
 7.86e-09,
*Elastic
210000., 0.26
** ----------------------------------------------------------------
** 
** STEP: analyse_modale
** 
*Step, name=analyse_modale, nlgeom=NO, perturbation
*Frequency, eigensolver=Lanczos, sim, acoustic coupling=on, normalization=mass
, , 500., , , 
** 
** BOUNDARY CONDITIONS
** 
** Name: blocage Type: Symmetry/Antisymmetry/Encastre
*Boundary
_PickedSet16, ENCASTRE
** 
** OUTPUT REQUESTS
** 
*Restart, write, frequency=0
** 
** FIELD OUTPUT: F-Output-1
** 
*Output, field
*Node Output, variable=PRESELECT
** 
** HISTORY OUTPUT: H-Output-1
** 
*Output, history
*Energy Output, variable=ALL
*End Step
