*Heading
** Job name: vibration Model name: Model-1
** Generated by: Abaqus/CAE 2025
*Preprint, echo=NO, model=NO, history=NO, contact=NO
**
** PARTS
**
*Part, name=plaque
*Node
      1,   227.111908,   172.888092,           0.
      2,   225.940338,   170.059662,           0.
      3,   227.111908,   167.231232,           0.
      4,   229.940338,   166.059662,           0.
      5,   232.768768,   167.231232,           0.
      6,   233.940338,   170.059662,           0.
      7,   232.768768,   172.888092,           0.
      8,   229.940338,   174.059662,           0.
      9,   167.231232,   172.888092,           0.
     10,   166.059662,   170.059662,           0.
     11,   167.231232,   167.231232,           0.
     12,   170.059662,   166.059662,           0.
     13,   172.888092,   167.231232,           0.
     14,   174.059662,   170.059662,           0.
     15,   172.888092,   172.888092,           0.
     16,   170.059662,   174.059662,           0.
     17,   172.888092,   227.111908,           0.
     18,   174.059662,   229.940338,           0.
     19,   172.888092,   232.768768,           0.
     20,   170.059662,   233.940338,           0.
** ... 2027 like lines cut
*Element, type=S3
 1,  196,  139,  168
 2,  258,  187,  227
 3,  368,  479,  280
 4,  285,  416,  209
 5,  286,  417,  207
 6,  375,  333,  374
 7,  598,  574,  522
 8,  359,  490, 1837
 9, 1061,  812,  914
10,  762,  512,  582
11,  695,  474,  577
12,  556,  406,  467
13, 1069,  924, 1002
14,  750,  507,  588
15,  803,  633,  725
16,  711,  638,  539
17, 2032,  931, 1012
18,  575,  779,  619
19,  979,  904,  786
20, 1865,  724,  629
** ... 66 like lines cut
*Element, type=S4R
  87,  366,  278,  324,  424
  88,  202,  117,  169,  240
  89,  118,  169,    5,    4
  90,  632,  567,  715,  796
  91,  166,  151,   13,   12
  92,  367,  279,  325,  425
  93,  120,  171,   11,   10
  94,  635,  568,  716,  798
  95, 1544, 1792, 1652, 1658
  96,  152,  113,  175,  242
  97,    9,  113,  152,  121
  98,  120,  121,  164,  205
  99,  219,  188,  297,  275
 100,  123,  157,   15,   14
 101,  157,  123,  188,  219
 102,  116,  159,    8,    7
 103,  191,  141,  183,  215
 104,  148,   14,   13,  125
 105,  166,   12,  119, 1790
 106,  199,  128,  149,  260
** ... 1931 like lines cut
*Nset, nset=_PickedSet2, internal, generate
    1,  2047,     1
*Elset, elset=_PickedSet2, internal, generate
    1,  2037,     1
** Section: tole
*Shell Section, elset=_PickedSet2, material=acier
0.5, 5
*End Part
**  
**
** ASSEMBLY
**
*Assembly, name=Assembly
**  
*Instance, name=plaque-1, part=plaque
*End Instance
**  
*Node
      1,   170.059662,   229.940338,           0.
*Node
      2,   170.059662,   170.059662,           0.
*Node
      3,   229.940338,   170.059662,           0.
*Node
      4,   229.940338,   229.940338,           0.
*Nset, nset=_PickedSet9, internal
 1,
*Nset, nset=_PickedSet11, internal
 2,
*Nset, nset=_PickedSet13, internal
 3,
*Nset, nset=_PickedSet15, internal
 4,
*Nset, nset=_PickedSet16, internal, generate
 1,  4,  1
*Elset, elset=__PickedSurf8_E1, internal, instance=plaque-1
 109, 203
*Elset, elset=__PickedSurf8_E3, internal, instance=plaque-1
 117, 121
*Elset, elset=__PickedSurf8_E2, internal, instance=plaque-1
 191, 218, 222, 224
*Surface, type=ELEMENT, name=_PickedSurf8, internal
__PickedSurf8_E1, E1
__PickedSurf8_E3, E3
__PickedSurf8_E2, E2
*Elset, elset=__PickedSurf10_E3, internal, instance=plaque-1
  91,  93, 100
*Elset, elset=__PickedSurf10_E2, internal, instance=plaque-1
 104, 189, 190, 198
*Elset, elset=__PickedSurf10_E1, internal, instance=plaque-1
 199,
*Surface, type=ELEMENT, name=_PickedSurf10, internal
__PickedSurf10_E3, E3
__PickedSurf10_E2, E2
__PickedSurf10_E1, E1
*Elset, elset=__PickedSurf12_E3, internal, instance=plaque-1
  89, 102, 129, 207
*Elset, elset=__PickedSurf12_E2, internal, instance=plaque-1
 194, 195, 196, 206
*Surface, type=ELEMENT, name=_PickedSurf12, internal
__PickedSurf12_E3, E3
__PickedSurf12_E2, E2
*Elset, elset=__PickedSurf14_E3, internal, instance=plaque-1
 113, 122, 126
*Elset, elset=__PickedSurf14_E2, internal, instance=plaque-1
 128, 192, 215
*Elset, elset=__PickedSurf14_E1, internal, instance=plaque-1
 211, 214
*Surface, type=ELEMENT, name=_PickedSurf14, internal
__PickedSurf14_E3, E3
__PickedSurf14_E2, E2
__PickedSurf14_E1, E1
** Constraint: Constraint-1
*Coupling, constraint name=Constraint-1, ref node=_PickedSet9, surface=_PickedSurf8
*Kinematic
** Constraint: Constraint-2
*Coupling, constraint name=Constraint-2, ref node=_PickedSet11, surface=_PickedSurf10
*Kinematic
** Constraint: Constraint-3
*Coupling, constraint name=Constraint-3, ref node=_PickedSet13, surface=_PickedSurf12
*Kinematic
** Constraint: Constraint-4
*Coupling, constraint name=Constraint-4, ref node=_PickedSet15, surface=_PickedSurf14
*Kinematic
*End Assembly
** 
** MATERIALS
** 
*Material, name=acier
*Density
 7.86e-09,
*Elastic
210000., 0.26
** ----------------------------------------------------------------
** 
** STEP: analyse_modale
** 
*Step, name=analyse_modale, nlgeom=NO, perturbation
*Frequency, eigensolver=Lanczos, sim, acoustic coupling=on, normalization=mass
, , 500., , , 
** 
** BOUNDARY CONDITIONS
** 
** Name: blocage Type: Symmetry/Antisymmetry/Encastre
*Boundary
_PickedSet16, ENCASTRE
** 
** OUTPUT REQUESTS
** 
*Restart, write, frequency=0
** 
** FIELD OUTPUT: F-Output-1
** 
*Output, field
*Node Output, variable=PRESELECT
** 
** HISTORY OUTPUT: H-Output-1
** 
*Output, history
*Energy Output, variable=ALL
*End Step
