*Heading
** Job name: vibration Model name: Model-1
** Generated by: Abaqus/CAE 2025
*Preprint, echo=NO, model=NO, history=NO, contact=NO
**
** PARTS
**
*Part, name=plaque
*Node
      1,   235.795959,   164.204041,           0.
      2,   234.624374,   161.375626,           0.
      3,   235.795959,   158.547195,           0.
      4,   238.624374,   157.375626,           0.
      5,   241.452805,   158.547195,           0.
      6,   242.624374,   161.375626,           0.
      7,   241.452805,   164.204041,           0.
      8,   238.624374,   165.375626,           0.
      9,   158.547195,   164.204041,           0.
     10,   157.375626,   161.375626,           0.
     11,   158.547195,   158.547195,           0.
     12,   161.375626,   157.375626,           0.
     13,   164.204041,   158.547195,           0.
     14,   165.375626,   161.375626,           0.
     15,   164.204041,   164.204041,           0.
     16,   161.375626,   165.375626,           0.
     17,   164.204041,   235.795959,           0.
     18,   165.375626,   238.624374,           0.
     19,   164.204041,   241.452805,           0.
     20,   161.375626,   242.624374,           0.
** ... 2262 like lines cut
*Element, type=S3
 1,  213,  115,  143
 2, 2067,  279,  368
 3,  288,  186,  238
 4, 2021,  187,  242
 5, 2019,  188,  243
 6, 2031,  191,  232
 7,  517, 2030,  485
 8, 2040,  298,  377
 9, 2042,  401,  291
10,  463, 2047,  336
11,  464, 2046,  338
12,  605,  589,  538
13,  811,  650,  733
14,  502,  372,  461
15,  503,  373,  462
16,  932,  756,  830
17,  620,  481, 2075
18,  759,  589,  687
19, 1036,  859,  768
20,  872, 2109,  780
** ... 66 like lines cut
*Element, type=S4R
  87,  313,  362,  270, 2031
  88,  191,  117,  165,  232
  89,  118,  165,    5,    4
  90,  467,  420,  278,  365
  91,  188,  126,  163,  243
  92,    3,    2,  127,  169
  93, 2027,  366,  277, 2013
  94,  120,  167,   11,   10
  95,  617,  542,  686,  765
  96, 1771, 2005, 1874, 1918
  97,  193,  139,   16,  155
  98,  255,  240,  285,  330
  99,   10,  121,  161,  120
 100,  133,   22,   21,  168
 101,  113,  155,   16,   15
 102,  123,   15,   14,  147
 103,  180,  123,  147,  206
 104,  440,  499,  411,  353
 105,   15,  123,  145,  113
 106,  114,  151,    1,    8
** ... 2166 like lines cut
*Nset, nset=_PickedSet2, internal, generate
    1,  2282,     1
*Elset, elset=_PickedSet2, internal, generate
    1,  2272,     1
** Section: tole
*Shell Section, elset=_PickedSet2, material=acier
0.5, 5
*End Part
**  
**
** ASSEMBLY
**
*Assembly, name=Assembly
**  
*Instance, name=plaque-1, part=plaque
*End Instance
**  
*Node
      1,   161.375626,   238.624374,           0.
*Node
      2,   161.375626,   161.375626,           0.
*Node
      3,   238.624374,   161.375626,           0.
*Node
      4,   238.624374,   238.624374,           0.
*Nset, nset=_PickedSet9, internal
 1,
*Nset, nset=_PickedSet11, internal
 2,
*Nset, nset=_PickedSet13, internal
 3,
*Nset, nset=_PickedSet15, internal
 4,
*Nset, nset=_PickedSet16, internal, generate
 1,  4,  1
*Elset, elset=__PickedSurf8_E2, internal, instance=plaque-1
 100, 198, 220, 224
*Elset, elset=__PickedSurf8_E3, internal, instance=plaque-1
 121, 125, 196, 217
*Surface, type=ELEMENT, name=_PickedSurf8, internal
__PickedSurf8_E2, E2
__PickedSurf8_E3, E3
*Elset, elset=__PickedSurf10_E3, internal, instance=plaque-1
  94, 101, 107, 122
*Elset, elset=__PickedSurf10_E2, internal, instance=plaque-1
 102, 108, 205, 211
*Surface, type=ELEMENT, name=_PickedSurf10, internal
__PickedSurf10_E3, E3
__PickedSurf10_E2, E2
*Elset, elset=__PickedSurf12_E3, internal, instance=plaque-1
  89, 106, 135
*Elset, elset=__PickedSurf12_E1, internal, instance=plaque-1
 92,
*Elset, elset=__PickedSurf12_E2, internal, instance=plaque-1
 197, 200, 201, 209
*Surface, type=ELEMENT, name=_PickedSurf12, internal
__PickedSurf12_E3, E3
__PickedSurf12_E1, E1
__PickedSurf12_E2, E2
*Elset, elset=__PickedSurf14_E3, internal, instance=plaque-1
 114, 127, 130, 133
*Elset, elset=__PickedSurf14_E2, internal, instance=plaque-1
 117, 199, 216
*Elset, elset=__PickedSurf14_E4, internal, instance=plaque-1
 157,
*Surface, type=ELEMENT, name=_PickedSurf14, internal
__PickedSurf14_E3, E3
__PickedSurf14_E2, E2
__PickedSurf14_E4, E4
** Constraint: Constraint-1
*Coupling, constraint name=Constraint-1, ref node=_PickedSet9, surface=_PickedSurf8
*Kinematic
** Constraint: Constraint-2
*Coupling, constraint name=Constraint-2, ref node=_PickedSet11, surface=_PickedSurf10
*Kinematic
** Constraint: Constraint-3
*Coupling, constraint name=Constraint-3, ref node=_PickedSet13, surface=_PickedSurf12
*Kinematic
** Constraint: Constraint-4
*Coupling, constraint name=Constraint-4, ref node=_PickedSet15, surface=_PickedSurf14
*Kinematic
*End Assembly
** 
** MATERIALS
** 
*Material, name=acier
*Density
 7.86e-09,
*Elastic
210000., 0.26
** ----------------------------------------------------------------
** 
** STEP: analyse_modale
** 
*Step, name=analyse_modale, nlgeom=NO, perturbation
*Frequency, eigensolver=Lanczos, sim, acoustic coupling=on, normalization=mass
, , 500., , , 
** 
** BOUNDARY CONDITIONS
** 
** Name: blocage Type: Symmetry/Antisymmetry/Encastre
*Boundary
_PickedSet16, ENCASTRE
** 
** OUTPUT REQUESTS
** 
*Restart, write, frequency=0
** 
** FIELD OUTPUT: F-Output-1
** 
*Output, field
*Node Output, variable=PRESELECT
** 
** HISTORY OUTPUT: H-Output-1
** 
*Output, history
*Energy Output, variable=ALL
*End Step
