*Heading
** Job name: vibration Model name: Model-1
** Generated by: Abaqus/CAE 2025
*Preprint, echo=NO, model=NO, history=NO, contact=NO
**
** PARTS
**
*Part, name=plaque
*Node
      1,    229.68425,    170.31575,           0.
      2,    228.51268,    167.48732,           0.
      3,    229.68425,    164.65889,           0.
      4,    232.51268,    163.48732,           0.
      5,    235.34111,    164.65889,           0.
      6,    236.51268,    167.48732,           0.
      7,    235.34111,    170.31575,           0.
      8,    232.51268,    171.48732,           0.
      9,    164.65889,    170.31575,           0.
     10,    163.48732,    167.48732,           0.
     11,    164.65889,    164.65889,           0.
     12,    167.48732,    163.48732,           0.
     13,    170.31575,    164.65889,           0.
     14,    171.48732,    167.48732,           0.
     15,    170.31575,    170.31575,           0.
     16,    167.48732,    171.48732,           0.
     17,    170.31575,    229.68425,           0.
     18,    171.48732,    232.51268,           0.
     19,    170.31575,    235.34111,           0.
     20,    167.48732,    236.51268,           0.
** ... 2079 like lines cut
*Element, type=S3
 1, 1889,  371,  319
 2,  650,  542,  641
 3, 1927,  432,  359
 4, 1925,  473,  555
 5,  655,  469,  494
 6,  654,  470,  495
 7,  555,  533,  440
 8,  956,  875,  787
 9,  804,  645,  724
10, 1092,  914, 1009
11,  601,  844,  759
12, 2045, 1067, 2074
13,  912,  731,  825
14,  914,  732,  826
15,  857,  765,  685
16,  882,  766,  797
17, 1070,  892,  986
18,  869, 2025, 1044
19,  968,  927,  840
20,  981, 1080,  798
** ... 36 like lines cut
*Element, type=S4R
  57,  174,  117,  197,  236
  58,  301,  268,  348,  412
  59,  118,  161,    5,    4
  60,  262,  200,  232,  346
  61,  172,  147,   13,   12
  62, 1854,  198, 1876,  238
  63,  120,  163,   11,   10
  64,  305,  199,  230,  485
  65, 1609, 1856, 1712, 1804
  66,  113,  175, 1867,  148
  67,    9,  113,  148,  121
  68,  170,  120,  121,  202
  69,  355,  426,  424,  372
  70,  123,  157,   15,   14
  71,  209,  157,  185,  308
  72,  116,  158,    8,    7
  73,  187,  140,  158,  208
  74,   14,  125,  153,  123
  75,  172,   12,  119, 1854
  76,  154,  223,  128,    2
** ... 1998 like lines cut
*Nset, nset=_PickedSet2, internal, generate
    1,  2099,     1
*Elset, elset=_PickedSet2, internal, generate
    1,  2074,     1
** Section: tole
*Shell Section, elset=_PickedSet2, material=acier
0.5, 5
*End Part
**  
**
** ASSEMBLY
**
*Assembly, name=Assembly
**  
*Instance, name=plaque-1, part=plaque
*End Instance
**  
*Node
      1,    167.48732,    232.51268,           0.
*Node
      2,    167.48732,    167.48732,           0.
*Node
      3,    232.51268,    167.48732,           0.
*Node
      4,    232.51268,    232.51268,           0.
*Nset, nset=_PickedSet9, internal
 1,
*Nset, nset=_PickedSet11, internal
 2,
*Nset, nset=_PickedSet13, internal
 3,
*Nset, nset=_PickedSet15, internal
 4,
*Nset, nset=_PickedSet16, internal, generate
 1,  4,  1
*Elset, elset=__PickedSurf8_E3, internal, instance=plaque-1
  79,  87,  92, 184
*Elset, elset=__PickedSurf8_E2, internal, instance=plaque-1
 165, 187, 191
*Elset, elset=__PickedSurf8_E1, internal, instance=plaque-1
 173,
*Surface, type=ELEMENT, name=_PickedSurf8, internal
__PickedSurf8_E3, E3
__PickedSurf8_E2, E2
__PickedSurf8_E1, E1
*Elset, elset=__PickedSurf10_E3, internal, instance=plaque-1
  61,  63,  70, 154
*Elset, elset=__PickedSurf10_E2, internal, instance=plaque-1
 163, 170, 175
*Elset, elset=__PickedSurf10_E1, internal, instance=plaque-1
 164,
*Surface, type=ELEMENT, name=_PickedSurf10, internal
__PickedSurf10_E3, E3
__PickedSurf10_E2, E2
__PickedSurf10_E1, E1
*Elset, elset=__PickedSurf12_E3, internal, instance=plaque-1
  59,  72,  78, 167, 178
*Elset, elset=__PickedSurf12_E2, internal, instance=plaque-1
 168, 169, 177
*Surface, type=ELEMENT, name=_PickedSurf12, internal
__PickedSurf12_E3, E3
__PickedSurf12_E2, E2
*Elset, elset=__PickedSurf14_E3, internal, instance=plaque-1
  81,  93,  97, 122
*Elset, elset=__PickedSurf14_E2, internal, instance=plaque-1
  99, 183, 185
*Elset, elset=__PickedSurf14_E1, internal, instance=plaque-1
 166,
*Surface, type=ELEMENT, name=_PickedSurf14, internal
__PickedSurf14_E3, E3
__PickedSurf14_E2, E2
__PickedSurf14_E1, E1
** Constraint: Constraint-1
*Coupling, constraint name=Constraint-1, ref node=_PickedSet9, surface=_PickedSurf8
*Kinematic
** Constraint: Constraint-2
*Coupling, constraint name=Constraint-2, ref node=_PickedSet11, surface=_PickedSurf10
*Kinematic
** Constraint: Constraint-3
*Coupling, constraint name=Constraint-3, ref node=_PickedSet13, surface=_PickedSurf12
*Kinematic
** Constraint: Constraint-4
*Coupling, constraint name=Constraint-4, ref node=_PickedSet15, surface=_PickedSurf14
*Kinematic
*End Assembly
** 
** MATERIALS
** 
*Material, name=acier
*Density
 7.86e-09,
*Elastic
210000., 0.26
** ----------------------------------------------------------------
** 
** STEP: analyse_modale
** 
*Step, name=analyse_modale, nlgeom=NO, perturbation
*Frequency, eigensolver=Lanczos, sim, acoustic coupling=on, normalization=mass
, , 500., , , 
** 
** BOUNDARY CONDITIONS
** 
** Name: blocage Type: Symmetry/Antisymmetry/Encastre
*Boundary
_PickedSet16, ENCASTRE
** 
** OUTPUT REQUESTS
** 
*Restart, write, frequency=0
** 
** FIELD OUTPUT: F-Output-1
** 
*Output, field
*Node Output, variable=PRESELECT
** 
** HISTORY OUTPUT: H-Output-1
** 
*Output, history
*Energy Output, variable=ALL
*End Step
