*Heading
** Job name: vibration Model name: Model-1
** Generated by: Abaqus/CAE 2025
*Preprint, echo=NO, model=NO, history=NO, contact=NO
**
** PARTS
**
*Part, name=plaque
*Node
      1,      378.138,   21.8619862,           0.
      2,   376.966431,   19.0335598,           0.
      3,      378.138,   16.2051315,           0.
      4,   380.966431,   15.0335598,           0.
      5,   383.794861,   16.2051315,           0.
      6,   384.966431,   19.0335598,           0.
      7,   383.794861,   21.8619862,           0.
      8,   380.966431,   23.0335598,           0.
      9,   16.2051315,   21.8619862,           0.
     10,   15.0335598,   19.0335598,           0.
     11,   16.2051315,   16.2051315,           0.
     12,   19.0335598,   15.0335598,           0.
     13,   21.8619862,   16.2051315,           0.
     14,   23.0335598,   19.0335598,           0.
     15,   21.8619862,   21.8619862,           0.
     16,   19.0335598,   23.0335598,           0.
     17,   21.8619862,      378.138,           0.
     18,   23.0335598,   380.966431,           0.
     19,   21.8619862,   383.794861,           0.
     20,   19.0335598,   384.966431,           0.
** ... 681 like lines cut
*Element, type=S3
 1, 636, 601, 116
 2, 142, 114, 133
 3, 181, 170, 178
 4, 122, 642, 603
 5, 150, 121, 140
 6, 627, 166, 629
 7, 156,  57,  56
 8, 161, 185, 176
 9, 246, 177, 186
10, 357, 307, 245
11, 657, 402, 654
12, 359, 306, 247
13, 411, 362, 363
14, 666, 658, 450
15, 693, 678, 533
16, 668, 500, 460
17, 665, 569, 457
18, 683, 533, 500
19, 578, 537, 556
20, 684, 541, 568
** ... 26 like lines cut
*Element, type=S4R
 47,   5, 124, 594,   6
 48, 124, 644, 617, 594
 49, 138,   4, 125, 595
 50, 125, 151, 635, 595
 51, 644, 124, 138, 595
 52, 621, 597,  11,  10
 53,  55, 146, 118, 618
 54, 148,  10,   9, 596
 55, 113, 154,  16,  15
 56, 135, 112, 111, 184
 57, 600, 130,  24,  23
 58, 161, 176, 166, 599
 59, 274, 287, 216, 215
 60, 646, 293, 353, 308
 61, 119, 136,  15,  14
 62, 131,   8,   7, 590
 63, 598, 119,  14,  13
 64, 146,  55,  54, 613
 65, 157,  74,  73, 611
 66, 589, 133,   1,   8
** ... 605 like lines cut
*Nset, nset=_PickedSet2, internal, generate
   1,  701,    1
*Elset, elset=_PickedSet2, internal, generate
   1,  671,    1
** Section: tole
*Shell Section, elset=_PickedSet2, material=acier
0.5, 5
*End Part
**  
**
** ASSEMBLY
**
*Assembly, name=Assembly
**  
*Instance, name=plaque-1, part=plaque
*End Instance
**  
*Node
      1,   19.0335598,   380.966431,           0.
*Node
      2,   19.0335598,   19.0335598,           0.
*Node
      3,   380.966431,   19.0335598,           0.
*Node
      4,   380.966431,   380.966431,           0.
*Nset, nset=_PickedSet9, internal
 1,
*Nset, nset=_PickedSet11, internal
 2,
*Nset, nset=_PickedSet13, internal
 3,
*Nset, nset=_PickedSet15, internal
 4,
*Nset, nset=_PickedSet16, internal, generate
 1,  4,  1
*Elset, elset=__PickedSurf8_E3, internal, instance=plaque-1
 57, 73
*Elset, elset=__PickedSurf8_E4, internal, instance=plaque-1
  72, 109, 111, 136
*Elset, elset=__PickedSurf8_E1, internal, instance=plaque-1
 74,
*Elset, elset=__PickedSurf8_E2, internal, instance=plaque-1
 160,
*Surface, type=ELEMENT, name=_PickedSurf8, internal
__PickedSurf8_E3, E3
__PickedSurf8_E4, E4
__PickedSurf8_E2, E2
__PickedSurf8_E1, E1
*Elset, elset=__PickedSurf10_E3, internal, instance=plaque-1
 52, 55, 61, 63
*Elset, elset=__PickedSurf10_E2, internal, instance=plaque-1
 54,
*Elset, elset=__PickedSurf10_E4, internal, instance=plaque-1
 123, 149
*Elset, elset=__PickedSurf10_E1, internal, instance=plaque-1
 151,
*Surface, type=ELEMENT, name=_PickedSurf10, internal
__PickedSurf10_E3, E3
__PickedSurf10_E2, E2
__PickedSurf10_E4, E4
__PickedSurf10_E1, E1
*Elset, elset=__PickedSurf12_E4, internal, instance=plaque-1
 47,
*Elset, elset=__PickedSurf12_E2, internal, instance=plaque-1
  62, 144, 158, 159
*Elset, elset=__PickedSurf12_E3, internal, instance=plaque-1
  66, 143
*Elset, elset=__PickedSurf12_E1, internal, instance=plaque-1
 141,
*Surface, type=ELEMENT, name=_PickedSurf12, internal
__PickedSurf12_E4, E4
__PickedSurf12_E2, E2
__PickedSurf12_E3, E3
__PickedSurf12_E1, E1
*Elset, elset=__PickedSurf14_E3, internal, instance=plaque-1, generate
 77,  79,   1
*Elset, elset=__PickedSurf14_E2, internal, instance=plaque-1
  81, 153, 155, 157
*Elset, elset=__PickedSurf14_E1, internal, instance=plaque-1
 139,
*Surface, type=ELEMENT, name=_PickedSurf14, internal
__PickedSurf14_E3, E3
__PickedSurf14_E2, E2
__PickedSurf14_E1, E1
** Constraint: Constraint-1
*Coupling, constraint name=Constraint-1, ref node=_PickedSet9, surface=_PickedSurf8
*Kinematic
** Constraint: Constraint-2
*Coupling, constraint name=Constraint-2, ref node=_PickedSet11, surface=_PickedSurf10
*Kinematic
** Constraint: Constraint-3
*Coupling, constraint name=Constraint-3, ref node=_PickedSet13, surface=_PickedSurf12
*Kinematic
** Constraint: Constraint-4
*Coupling, constraint name=Constraint-4, ref node=_PickedSet15, surface=_PickedSurf14
*Kinematic
*End Assembly
** 
** MATERIALS
** 
*Material, name=acier
*Density
 7.86e-09,
*Elastic
210000., 0.26
** ----------------------------------------------------------------
** 
** STEP: analyse_modale
** 
*Step, name=analyse_modale, nlgeom=NO, perturbation
*Frequency, eigensolver=Lanczos, sim, acoustic coupling=on, normalization=mass
, , 500., , , 
** 
** BOUNDARY CONDITIONS
** 
** Name: blocage Type: Symmetry/Antisymmetry/Encastre
*Boundary
_PickedSet16, ENCASTRE
** 
** OUTPUT REQUESTS
** 
*Restart, write, frequency=0
** 
** FIELD OUTPUT: F-Output-1
** 
*Output, field
*Node Output, variable=PRESELECT
** 
** HISTORY OUTPUT: H-Output-1
** 
*Output, history
*Energy Output, variable=ALL
*End Step
