*Heading
** Job name: vibration Model name: Model-1
** Generated by: Abaqus/CAE 2025
*Preprint, echo=NO, model=NO, history=NO, contact=NO
**
** PARTS
**
*Part, name=plaque
*Node
      1,    375.59201,   24.4079971,           0.
      2,   374.420441,   21.5795708,           0.
      3,    375.59201,   18.7511425,           0.
      4,   378.420441,   17.5795708,           0.
      5,   381.248871,   18.7511425,           0.
      6,   382.420441,   21.5795708,           0.
      7,   381.248871,   24.4079971,           0.
      8,   378.420441,   25.5795708,           0.
      9,   18.7511425,   24.4079971,           0.
     10,   17.5795708,   21.5795708,           0.
     11,   18.7511425,   18.7511425,           0.
     12,   21.5795708,   17.5795708,           0.
     13,   24.4079971,   18.7511425,           0.
     14,   25.5795708,   21.5795708,           0.
     15,   24.4079971,   24.4079971,           0.
     16,   21.5795708,   25.5795708,           0.
     17,   24.4079971,    375.59201,           0.
     18,   25.5795708,   378.420441,           0.
     19,   24.4079971,   381.248871,           0.
     20,   21.5795708,   382.420441,           0.
** ... 690 like lines cut
*Element, type=S3
 1,  11, 166,  12
 2,   5, 133,   6
 3, 305, 198, 249
 4, 639, 634, 633
 5, 156, 116, 133
 6, 659, 621, 170
 7, 128, 126,  18
 8, 156, 628, 116
 9,  21,  20, 118
10, 167,  11,  10
11, 202, 120, 143
12,  28, 142, 135
13, 113,  25,  32
14, 649, 153, 126
15, 139, 138,  13
16,  12, 139,  13
17, 140, 132,  15
18, 251, 190, 399
19, 656, 155, 163
20, 648,  93,  92
** ... 26 like lines cut
*Element, type=S4R
 47, 168, 636, 635, 169
 48,   4,   3, 125, 137
 49,  22, 127, 134, 124
 50,  24, 114, 147,  17
 51,  16,  15, 132, 619
 52, 145, 619, 146, 159
 53, 231,  99,  98, 263
 54, 625, 272,  39,  38
 55, 140,  15,  14, 119
 56, 154,   2, 117, 196
 57, 260, 102, 101, 269
 58, 143,  29, 121, 622
 59,  20,  19, 144, 118
 60, 118, 170, 621,  21
 61, 115,  24,  23, 148
 62, 192, 201, 207, 185
 63,  30, 120, 174,  31
 64, 142, 645, 164, 135
 65, 131,  26,  25, 113
 66, 151,   7, 116, 628
** ... 614 like lines cut
*Nset, nset=_PickedSet2, internal, generate
   1,  710,    1
*Elset, elset=_PickedSet2, internal, generate
   1,  680,    1
** Section: tole
*Shell Section, elset=_PickedSet2, material=acier
0.5, 5
*End Part
**  
**
** ASSEMBLY
**
*Assembly, name=Assembly
**  
*Instance, name=plaque-1, part=plaque
*End Instance
**  
*Node
      1,   21.5795708,   378.420441,           0.
*Node
      2,   21.5795708,   21.5795708,           0.
*Node
      3,   378.420441,   21.5795708,           0.
*Node
      4,   378.420441,   378.420441,           0.
*Nset, nset=_PickedSet9, internal
 1,
*Nset, nset=_PickedSet11, internal
 2,
*Nset, nset=_PickedSet13, internal
 3,
*Nset, nset=_PickedSet15, internal
 4,
*Nset, nset=_PickedSet16, internal, generate
 1,  4,  1
*Elset, elset=__PickedSurf8_E1, internal, instance=plaque-1
   9,  59, 127
*Elset, elset=__PickedSurf8_E4, internal, instance=plaque-1
 50,
*Elset, elset=__PickedSurf8_E2, internal, instance=plaque-1
  61, 141, 142
*Elset, elset=__PickedSurf8_E3, internal, instance=plaque-1
 122,
*Surface, type=ELEMENT, name=_PickedSurf8, internal
__PickedSurf8_E1, E1
__PickedSurf8_E4, E4
__PickedSurf8_E2, E2
__PickedSurf8_E3, E3
*Elset, elset=__PickedSurf10_E3, internal, instance=plaque-1
   1,  16, 156
*Elset, elset=__PickedSurf10_E2, internal, instance=plaque-1
  10,  55, 129, 161
*Elset, elset=__PickedSurf10_E1, internal, instance=plaque-1
 51,
*Surface, type=ELEMENT, name=_PickedSurf10, internal
__PickedSurf10_E3, E3
__PickedSurf10_E2, E2
__PickedSurf10_E1, E1
*Elset, elset=__PickedSurf12_E3, internal, instance=plaque-1
   2,  68, 118
*Elset, elset=__PickedSurf12_E1, internal, instance=plaque-1
  48, 119
*Elset, elset=__PickedSurf12_E4, internal, instance=plaque-1
 70,
*Elset, elset=__PickedSurf12_E2, internal, instance=plaque-1
 125, 137
*Surface, type=ELEMENT, name=_PickedSurf12, internal
__PickedSurf12_E3, E3
__PickedSurf12_E1, E1
__PickedSurf12_E4, E4
__PickedSurf12_E2, E2
*Elset, elset=__PickedSurf14_E2, internal, instance=plaque-1
  13,  65, 132, 133, 135, 136
*Elset, elset=__PickedSurf14_E4, internal, instance=plaque-1
 63, 80
*Surface, type=ELEMENT, name=_PickedSurf14, internal
__PickedSurf14_E2, E2
__PickedSurf14_E4, E4
** Constraint: Constraint-1
*Coupling, constraint name=Constraint-1, ref node=_PickedSet9, surface=_PickedSurf8
*Kinematic
** Constraint: Constraint-2
*Coupling, constraint name=Constraint-2, ref node=_PickedSet11, surface=_PickedSurf10
*Kinematic
** Constraint: Constraint-3
*Coupling, constraint name=Constraint-3, ref node=_PickedSet13, surface=_PickedSurf12
*Kinematic
** Constraint: Constraint-4
*Coupling, constraint name=Constraint-4, ref node=_PickedSet15, surface=_PickedSurf14
*Kinematic
*End Assembly
** 
** MATERIALS
** 
*Material, name=acier
*Density
 7.86e-09,
*Elastic
210000., 0.26
** ----------------------------------------------------------------
** 
** STEP: analyse_modale
** 
*Step, name=analyse_modale, nlgeom=NO, perturbation
*Frequency, eigensolver=Lanczos, sim, acoustic coupling=on, normalization=mass
, , 500., , , 
** 
** BOUNDARY CONDITIONS
** 
** Name: blocage Type: Symmetry/Antisymmetry/Encastre
*Boundary
_PickedSet16, ENCASTRE
** 
** OUTPUT REQUESTS
** 
*Restart, write, frequency=0
** 
** FIELD OUTPUT: F-Output-1
** 
*Output, field
*Node Output, variable=PRESELECT
** 
** HISTORY OUTPUT: H-Output-1
** 
*Output, history
*Energy Output, variable=ALL
*End Step
