*Heading
** Job name: vibration Model name: Model-1
** Generated by: Abaqus/CAE 2025
*Preprint, echo=NO, model=NO, history=NO, contact=NO
**
** PARTS
**
*Part, name=plaque
*Node
      1,   331.738495,   68.2615051,           0.
      2,   330.566925,    65.433075,           0.
      3,   331.738495,   62.6046486,           0.
      4,   334.566925,    61.433075,           0.
      5,   337.395355,   62.6046486,           0.
      6,   338.566925,    65.433075,           0.
      7,   337.395355,   68.2615051,           0.
      8,   334.566925,    69.433075,           0.
      9,   62.6046486,   68.2615051,           0.
     10,    61.433075,    65.433075,           0.
     11,   62.6046486,   62.6046486,           0.
     12,    65.433075,    61.433075,           0.
     13,   68.2615051,   62.6046486,           0.
     14,    69.433075,    65.433075,           0.
     15,   68.2615051,   68.2615051,           0.
     16,    65.433075,    69.433075,           0.
     17,   68.2615051,   331.738495,           0.
     18,    69.433075,   334.566925,           0.
     19,   68.2615051,   337.395355,           0.
     20,    65.433075,   338.566925,           0.
** ... 1777 like lines cut
*Element, type=S3
 1,  190,  128,  153
 2,   22,  146,   23
 3,  131,  224,  163
 4, 1579,  288,  227
 5,  193,  124,  159
 6,  202,  183,  166
 7,  240,  289,  183
 8, 1591,  205,  173
 9,  377,  525,  503
10,  244,  322,  275
11, 1602,  393,  271
12,  284, 1589,  225
13,  362,  288,  361
14,  440, 1649,  347
15, 1648,  281, 1628
16, 1616,  354, 1644
17,  358,  283,  318
18,  306,  323, 1606
19,  392,  329,  321
20,  256,  362,  313
** ... 58 like lines cut
*Element, type=S4R
  79,  117,    6,  119,  148
  80,  131,  163,    5,    4
  81,  164,    3,  120, 1572
  82,  147,    2,  118,  203
  83, 1573,   12,   11,  124
  84,  360,  380,  510,  429
  85,    9,  116,  143,   10
  86,  184,  218,  116,  142
  87,  154,  146,   22,  133
  88,  210,  180,  114,  146
  89,  123,  167,   15,   14
  90,  171,  204,  167,  123
  91,  135,  168,   17,   24
  92,  172,  135,  139,  208
  93,  138,    8,  115,  141
  94,  479,  520,  443,  407
  95,  273,  294,  235,  209
  96,  122,  160,   13,   12
  97,  122,  188, 1578,  160
  98,  117,  144,    7,    6
** ... 1685 like lines cut
*Nset, nset=_PickedSet2, internal, generate
    1,  1797,     1
*Elset, elset=_PickedSet2, internal, generate
    1,  1783,     1
** Section: tole
*Shell Section, elset=_PickedSet2, material=acier
0.5, 5
*End Part
**  
**
** ASSEMBLY
**
*Assembly, name=Assembly
**  
*Instance, name=plaque-1, part=plaque
*End Instance
**  
*Node
      1,    65.433075,   334.566925,           0.
*Node
      2,    65.433075,    65.433075,           0.
*Node
      3,   334.566925,    65.433075,           0.
*Node
      4,   334.566925,   334.566925,           0.
*Nset, nset=_PickedSet9, internal
 1,
*Nset, nset=_PickedSet11, internal
 2,
*Nset, nset=_PickedSet13, internal
 3,
*Nset, nset=_PickedSet15, internal
 4,
*Nset, nset=_PickedSet16, internal, generate
 1,  4,  1
*Elset, elset=__PickedSurf8_E3, internal, instance=plaque-1
  2, 91
*Elset, elset=__PickedSurf8_E4, internal, instance=plaque-1
 104, 149, 155
*Elset, elset=__PickedSurf8_E2, internal, instance=plaque-1
 170, 175, 190
*Surface, type=ELEMENT, name=_PickedSurf8, internal
__PickedSurf8_E3, E3
__PickedSurf8_E4, E4
__PickedSurf8_E2, E2
*Elset, elset=__PickedSurf10_E2, internal, instance=plaque-1
  83, 129, 172, 177
*Elset, elset=__PickedSurf10_E4, internal, instance=plaque-1
  85, 164
*Elset, elset=__PickedSurf10_E3, internal, instance=plaque-1
 89, 96
*Surface, type=ELEMENT, name=_PickedSurf10, internal
__PickedSurf10_E2, E2
__PickedSurf10_E4, E4
__PickedSurf10_E3, E3
*Elset, elset=__PickedSurf12_E3, internal, instance=plaque-1
  80,  98, 110
*Elset, elset=__PickedSurf12_E2, internal, instance=plaque-1
  99, 171
*Elset, elset=__PickedSurf12_E4, internal, instance=plaque-1
 119, 120, 122
*Surface, type=ELEMENT, name=_PickedSurf12, internal
__PickedSurf12_E3, E3
__PickedSurf12_E2, E2
__PickedSurf12_E4, E4
*Elset, elset=__PickedSurf14_E1, internal, instance=plaque-1
 101, 107
*Elset, elset=__PickedSurf14_E3, internal, instance=plaque-1
 111,
*Elset, elset=__PickedSurf14_E4, internal, instance=plaque-1
 114, 139
*Elset, elset=__PickedSurf14_E2, internal, instance=plaque-1
 169, 182, 185
*Surface, type=ELEMENT, name=_PickedSurf14, internal
__PickedSurf14_E1, E1
__PickedSurf14_E3, E3
__PickedSurf14_E4, E4
__PickedSurf14_E2, E2
** Constraint: Constraint-1
*Coupling, constraint name=Constraint-1, ref node=_PickedSet9, surface=_PickedSurf8
*Kinematic
** Constraint: Constraint-2
*Coupling, constraint name=Constraint-2, ref node=_PickedSet11, surface=_PickedSurf10
*Kinematic
** Constraint: Constraint-3
*Coupling, constraint name=Constraint-3, ref node=_PickedSet13, surface=_PickedSurf12
*Kinematic
** Constraint: Constraint-4
*Coupling, constraint name=Constraint-4, ref node=_PickedSet15, surface=_PickedSurf14
*Kinematic
*End Assembly
** 
** MATERIALS
** 
*Material, name=acier
*Density
 7.86e-09,
*Elastic
210000., 0.26
** ----------------------------------------------------------------
** 
** STEP: analyse_modale
** 
*Step, name=analyse_modale, nlgeom=NO, perturbation
*Frequency, eigensolver=Lanczos, sim, acoustic coupling=on, normalization=mass
, , 500., , , 
** 
** BOUNDARY CONDITIONS
** 
** Name: blocage Type: Symmetry/Antisymmetry/Encastre
*Boundary
_PickedSet16, ENCASTRE
** 
** OUTPUT REQUESTS
** 
*Restart, write, frequency=0
** 
** FIELD OUTPUT: F-Output-1
** 
*Output, field
*Node Output, variable=PRESELECT
** 
** HISTORY OUTPUT: H-Output-1
** 
*Output, history
*Energy Output, variable=ALL
*End Step
