*Heading
** Job name: vibration Model name: Model-1
** Generated by: Abaqus/CAE 2025
*Preprint, echo=NO, model=NO, history=NO, contact=NO
**
** PARTS
**
*Part, name=plaque
*Node
      1,   264.296143,   135.703842,           0.
      2,   263.124573,   132.875412,           0.
      3,   264.296143,   130.046982,           0.
      4,   267.124573,   128.875412,           0.
      5,   269.953003,   130.046982,           0.
      6,   271.124573,   132.875412,           0.
      7,   269.953003,   135.703842,           0.
      8,   267.124573,   136.875412,           0.
      9,   130.046982,   135.703842,           0.
     10,   128.875412,   132.875412,           0.
     11,   130.046982,   130.046982,           0.
     12,   132.875412,   128.875412,           0.
     13,   135.703842,   130.046982,           0.
     14,   136.875412,   132.875412,           0.
     15,   135.703842,   135.703842,           0.
     16,   132.875412,   136.875412,           0.
     17,   135.703842,   264.296143,           0.
     18,   136.875412,   267.124573,           0.
     19,   135.703842,   269.953003,           0.
     20,   132.875412,   271.124573,           0.
** ... 3183 like lines cut
*Element, type=S3
  1,  329,  378,  264
  2,  297,  232,  267
  3,  204,  124,  158
  4,  739, 2880, 2820
  5, 2708, 2733,  268
  6,  266,  195,  220
  7, 2734,  356,  277
  8,  498,  560,  385
  9,  457,  401,  358
 10,  411,  312,  392
 11, 1051,  892,  973
 12,  458,  526,  352
 13,  455,  532,  390
 14, 2782,  567,  626
 15,  884,  658,  743
 16,  563,  741,  504
 17, 2888, 2908,  899
 18, 1048,  890,  976
 19,  744,  592,  670
 20,  857,  685,  767
** ... 88 like lines cut
*Element, type=S4R
 109,  119,  194, 2719,  175
 110,  194,  293,  260, 2719
 111,  263,  290,  228,  166
 112,    5,  134,  166,  116
 113,  330,  263,  297,  384
 114,  118,  167,    3,    2
 115,  332, 2726,  267, 2715
 116,   11,  123,  165,  122
 117,  231,  201,  123,  169
 118,   94, 2662, 2561,   95
 119,    9,  115,  158,  124
 120,  115,    9,   16,  146
 121,   23,  157,  141,   24
 122,   15,  125,  154,  140
 123,  405,  461,  336,  340
 124,  212, 2712,  178,  149
 125,  301,  340,  336, 2727
 126,  147,    1,  113, 2705
 127, 2792, 2751, 2763,  270
 128,  122,  170,   12,   11
** ... 3076 like lines cut
*Nset, nset=_PickedSet2, internal, generate
    1,  3203,     1
*Elset, elset=_PickedSet2, internal, generate
    1,  3204,     1
** Section: tole
*Shell Section, elset=_PickedSet2, material=acier
0.5, 5
*End Part
**  
**
** ASSEMBLY
**
*Assembly, name=Assembly
**  
*Instance, name=plaque-1, part=plaque
*End Instance
**  
*Node
      1,   132.875412,   267.124573,           0.
*Node
      2,   132.875412,   132.875412,           0.
*Node
      3,   267.124573,   132.875412,           0.
*Node
      4,   267.124573,   267.124573,           0.
*Nset, nset=_PickedSet9, internal
 1,
*Nset, nset=_PickedSet11, internal
 2,
*Nset, nset=_PickedSet13, internal
 3,
*Nset, nset=_PickedSet15, internal
 4,
*Nset, nset=_PickedSet16, internal, generate
 1,  4,  1
*Elset, elset=__PickedSurf8_E4, internal, instance=plaque-1
 121,
*Elset, elset=__PickedSurf8_E3, internal, instance=plaque-1
 139, 211
*Elset, elset=__PickedSurf8_E2, internal, instance=plaque-1
 217, 232, 235
*Elset, elset=__PickedSurf8_E1, internal, instance=plaque-1
 218, 236
*Surface, type=ELEMENT, name=_PickedSurf8, internal
__PickedSurf8_E4, E4
__PickedSurf8_E3, E3
__PickedSurf8_E2, E2
__PickedSurf8_E1, E1
*Elset, elset=__PickedSurf10_E2, internal, instance=plaque-1
 120, 221
*Elset, elset=__PickedSurf10_E3, internal, instance=plaque-1
 128, 200, 213
*Elset, elset=__PickedSurf10_E4, internal, instance=plaque-1
 160, 198
*Elset, elset=__PickedSurf10_E1, internal, instance=plaque-1
 210,
*Surface, type=ELEMENT, name=_PickedSurf10, internal
__PickedSurf10_E2, E2
__PickedSurf10_E3, E3
__PickedSurf10_E4, E4
__PickedSurf10_E1, E1
*Elset, elset=__PickedSurf12_E3, internal, instance=plaque-1
 114, 130, 157
*Elset, elset=__PickedSurf12_E4, internal, instance=plaque-1
 175,
*Elset, elset=__PickedSurf12_E2, internal, instance=plaque-1
 207, 212, 214
*Elset, elset=__PickedSurf12_E1, internal, instance=plaque-1
 208,
*Surface, type=ELEMENT, name=_PickedSurf12, internal
__PickedSurf12_E3, E3
__PickedSurf12_E4, E4
__PickedSurf12_E2, E2
__PickedSurf12_E1, E1
*Elset, elset=__PickedSurf14_E3, internal, instance=plaque-1
 131, 133, 147
*Elset, elset=__PickedSurf14_E2, internal, instance=plaque-1
 132, 226
*Elset, elset=__PickedSurf14_E4, internal, instance=plaque-1
 171, 191, 253
*Surface, type=ELEMENT, name=_PickedSurf14, internal
__PickedSurf14_E3, E3
__PickedSurf14_E2, E2
__PickedSurf14_E4, E4
** Constraint: Constraint-1
*Coupling, constraint name=Constraint-1, ref node=_PickedSet9, surface=_PickedSurf8
*Kinematic
** Constraint: Constraint-2
*Coupling, constraint name=Constraint-2, ref node=_PickedSet11, surface=_PickedSurf10
*Kinematic
** Constraint: Constraint-3
*Coupling, constraint name=Constraint-3, ref node=_PickedSet13, surface=_PickedSurf12
*Kinematic
** Constraint: Constraint-4
*Coupling, constraint name=Constraint-4, ref node=_PickedSet15, surface=_PickedSurf14
*Kinematic
*End Assembly
** 
** MATERIALS
** 
*Material, name=acier
*Density
 7.86e-09,
*Elastic
210000., 0.26
** ----------------------------------------------------------------
** 
** STEP: analyse_modale
** 
*Step, name=analyse_modale, nlgeom=NO, perturbation
*Frequency, eigensolver=Lanczos, sim, acoustic coupling=on, normalization=mass
, , 500., , , 
** 
** BOUNDARY CONDITIONS
** 
** Name: blocage Type: Symmetry/Antisymmetry/Encastre
*Boundary
_PickedSet16, ENCASTRE
** 
** OUTPUT REQUESTS
** 
*Restart, write, frequency=0
** 
** FIELD OUTPUT: F-Output-1
** 
*Output, field
*Node Output, variable=PRESELECT
** 
** HISTORY OUTPUT: H-Output-1
** 
*Output, history
*Energy Output, variable=ALL
*End Step
