*Heading
** Job name: vibration Model name: Model-1
** Generated by: Abaqus/CAE 2025
*Preprint, echo=NO, model=NO, history=NO, contact=NO
**
** PARTS
**
*Part, name=plaque
*Node
      1,   318.036377,    81.963623,           0.
      2,   316.864807,   79.1352005,           0.
      3,   318.036377,   76.3067703,           0.
      4,   320.864807,   75.1352005,           0.
      5,   323.693237,   76.3067703,           0.
      6,   324.864807,   79.1352005,           0.
      7,   323.693237,    81.963623,           0.
      8,   320.864807,   83.1352005,           0.
      9,   76.3067703,    81.963623,           0.
     10,   75.1352005,   79.1352005,           0.
     11,   76.3067703,   76.3067703,           0.
     12,   79.1352005,   75.1352005,           0.
     13,    81.963623,   76.3067703,           0.
     14,   83.1352005,   79.1352005,           0.
     15,    81.963623,    81.963623,           0.
     16,   79.1352005,   83.1352005,           0.
     17,    81.963623,   318.036377,           0.
     18,   83.1352005,   320.864807,           0.
     19,    81.963623,   323.693237,           0.
     20,   79.1352005,   324.864807,           0.
** ... 2703 like lines cut
*Element, type=S3
 1,  127,  257,  162
 2,  191,  121,  155
 3,  130,  247,  168
 4,  442,  563,  506
 5,  301,  360,  334
 6,  221,  126,  162
 7,  610, 2483,  502
 8, 2486,  510,  388
 9, 2480,  234, 2412
10, 2445,  306,  439
11, 2441,  420,  468
12,  324,  440,  357
13,  452,  419,  415
14,  508,  359,  463
15,  673,  561,  606
16,  696,  758,  604
17,  693,  600,  652
18, 2563,  807,  700
19,  703,  664,  605
20,  743,  747,  686
** ... 60 like lines cut
*Element, type=S4R
  81,  265, 2386,  200,  264
  82,  118,    5,  135,  161
  83,    3,  119,  165,  136
  84,  119,    3,    2,  153
  85, 2373,  224,  198,  164
  86,  124,   11,  125,  164
  87, 2353, 2348, 2391, 2355
  88,  117,  172,   16,   15
  89,  116,   23,  137,  174
  90,  116,  148,   24,   23
  91,  117,  144,  203,  182
  92,  203,  144, 2383, 2390
  93,  271,  206,  235, 2432
  94,  114,  173,    8,    7
  95,  120,  145,  181, 2374
  96,  153,    2,  120,  207
  97,  225,  159,  184, 2384
  98,  127,   13,   12,  160
  99,  124,  160,   12,   11
 100,  118,  155,    6,    5
** ... 2610 like lines cut
*Nset, nset=_PickedSet2, internal, generate
    1,  2723,     1
*Elset, elset=_PickedSet2, internal, generate
    1,  2710,     1
** Section: tole
*Shell Section, elset=_PickedSet2, material=acier
0.5, 5
*End Part
**  
**
** ASSEMBLY
**
*Assembly, name=Assembly
**  
*Instance, name=plaque-1, part=plaque
*End Instance
**  
*Node
      1,   79.1352005,   320.864807,           0.
*Node
      2,   79.1352005,   79.1352005,           0.
*Node
      3,   320.864807,   79.1352005,           0.
*Node
      4,   320.864807,   320.864807,           0.
*Nset, nset=_PickedSet9, internal
 1,
*Nset, nset=_PickedSet11, internal
 2,
*Nset, nset=_PickedSet13, internal
 3,
*Nset, nset=_PickedSet15, internal
 4,
*Nset, nset=_PickedSet16, internal, generate
 1,  4,  1
*Elset, elset=__PickedSurf8_E3, internal, instance=plaque-1
  90, 106, 179
*Elset, elset=__PickedSurf8_E2, internal, instance=plaque-1
 113, 184, 191
*Elset, elset=__PickedSurf8_E4, internal, instance=plaque-1
 155,
*Elset, elset=__PickedSurf8_E1, internal, instance=plaque-1
 207,
*Surface, type=ELEMENT, name=_PickedSurf8, internal
__PickedSurf8_E3, E3
__PickedSurf8_E2, E2
__PickedSurf8_E4, E4
__PickedSurf8_E1, E1
*Elset, elset=__PickedSurf10_E3, internal, instance=plaque-1
  88,  99, 101
*Elset, elset=__PickedSurf10_E2, internal, instance=plaque-1
  98, 172, 193, 196
*Elset, elset=__PickedSurf10_E4, internal, instance=plaque-1
 132,
*Surface, type=ELEMENT, name=_PickedSurf10, internal
__PickedSurf10_E3, E3
__PickedSurf10_E2, E2
__PickedSurf10_E4, E4
*Elset, elset=__PickedSurf12_E2, internal, instance=plaque-1
  84, 122, 186, 188
*Elset, elset=__PickedSurf12_E3, internal, instance=plaque-1
  94, 100, 128
*Elset, elset=__PickedSurf12_E4, internal, instance=plaque-1
 146,
*Surface, type=ELEMENT, name=_PickedSurf12, internal
__PickedSurf12_E2, E2
__PickedSurf12_E3, E3
__PickedSurf12_E4, E4
*Elset, elset=__PickedSurf14_E2, internal, instance=plaque-1
 104, 120, 181, 202
*Elset, elset=__PickedSurf14_E3, internal, instance=plaque-1, generate
 114,  116,    1
*Elset, elset=__PickedSurf14_E4, internal, instance=plaque-1
 119,
*Surface, type=ELEMENT, name=_PickedSurf14, internal
__PickedSurf14_E2, E2
__PickedSurf14_E3, E3
__PickedSurf14_E4, E4
** Constraint: Constraint-1
*Coupling, constraint name=Constraint-1, ref node=_PickedSet9, surface=_PickedSurf8
*Kinematic
** Constraint: Constraint-2
*Coupling, constraint name=Constraint-2, ref node=_PickedSet11, surface=_PickedSurf10
*Kinematic
** Constraint: Constraint-3
*Coupling, constraint name=Constraint-3, ref node=_PickedSet13, surface=_PickedSurf12
*Kinematic
** Constraint: Constraint-4
*Coupling, constraint name=Constraint-4, ref node=_PickedSet15, surface=_PickedSurf14
*Kinematic
*End Assembly
** 
** MATERIALS
** 
*Material, name=acier
*Density
 7.86e-09,
*Elastic
210000., 0.26
** ----------------------------------------------------------------
** 
** STEP: analyse_modale
** 
*Step, name=analyse_modale, nlgeom=NO, perturbation
*Frequency, eigensolver=Lanczos, sim, acoustic coupling=on, normalization=mass
, , 500., , , 
** 
** BOUNDARY CONDITIONS
** 
** Name: blocage Type: Symmetry/Antisymmetry/Encastre
*Boundary
_PickedSet16, ENCASTRE
** 
** OUTPUT REQUESTS
** 
*Restart, write, frequency=0
** 
** FIELD OUTPUT: F-Output-1
** 
*Output, field
*Node Output, variable=PRESELECT
** 
** HISTORY OUTPUT: H-Output-1
** 
*Output, history
*Energy Output, variable=ALL
*End Step
