*Heading
** Job name: vibration Model name: Model-1
** Generated by: Abaqus/CAE 2025
*Preprint, echo=NO, model=NO, history=NO, contact=NO
**
** PARTS
**
*Part, name=plaque
*Node
      1,   227.029449,   172.970551,           0.
      2,    225.85788,    170.14212,           0.
      3,   227.029449,    167.31369,           0.
      4,    229.85788,    166.14212,           0.
      5,    232.68631,    167.31369,           0.
      6,    233.85788,    170.14212,           0.
      7,    232.68631,   172.970551,           0.
      8,    229.85788,    174.14212,           0.
      9,    167.31369,   172.970551,           0.
     10,    166.14212,    170.14212,           0.
     11,    167.31369,    167.31369,           0.
     12,    170.14212,    166.14212,           0.
     13,   172.970551,    167.31369,           0.
     14,    174.14212,    170.14212,           0.
     15,   172.970551,   172.970551,           0.
     16,    170.14212,    174.14212,           0.
     17,   172.970551,   227.029449,           0.
     18,    174.14212,    229.85788,           0.
     19,   172.970551,    232.68631,           0.
     20,    170.14212,    233.85788,           0.
** ... 2013 like lines cut
*Element, type=S3
 1,  136,  236,  168
 2,  194,  126,  172
 3, 1766,  115,  145
 4, 1753,  246,  169
 5,  522, 1804,  497
 6,  275,  199,  233
 7,  365,  475,  273
 8, 1791,  303,  516
 9, 1794,  304,  517
10, 1767,  308,  222
11, 1800,  405,  297
12,  369,  425,  281
13, 1020,  792,  881
14,  560,  428,  487
15,  642,  358,  448
16, 1923, 1850, 1880
17,  869,  627,  701
18, 1884,  592,  473
19, 1866,  532,  597
20, 1249, 1191, 1238
** ... 54 like lines cut
*Element, type=S4R
  75,  257,  196,  234,  345
  76,  274,  479,  314,  275
  77,  118,  161,    5,    4
  78,  274,  203,  240,  364
  79,   13,  126,  149,  125
  80,  201,  232,  318,  283
  81,  120,  163,   11,   10
  82,  273,  202,  238,  365
  83, 1495, 1754, 1596, 1609
  84,   10,  121,  170,  120
  85,    9,   16,  141,  175
  86,  122,   23,   22,  171
  87,   16,  113,  158,  141
  88,  123,   15,   14,  154
  89,  184,  212,  154,  125
  90,  381,  288,  326,  443
  91,  147,   15,  123,  182
  92,  114,  150,    1,    8
  93,  125,  154,   14,   13
  94,  172,   12,  119, 1752
** ... 1923 like lines cut
*Nset, nset=_PickedSet2, internal, generate
    1,  2033,     1
*Elset, elset=_PickedSet2, internal, generate
    1,  2017,     1
** Section: tole
*Shell Section, elset=_PickedSet2, material=acier
0.5, 5
*End Part
**  
**
** ASSEMBLY
**
*Assembly, name=Assembly
**  
*Instance, name=plaque-1, part=plaque
*End Instance
**  
*Node
      1,    170.14212,    229.85788,           0.
*Node
      2,    170.14212,    170.14212,           0.
*Node
      3,    229.85788,    170.14212,           0.
*Node
      4,    229.85788,    229.85788,           0.
*Nset, nset=_PickedSet9, internal
 1,
*Nset, nset=_PickedSet11, internal
 2,
*Nset, nset=_PickedSet13, internal
 3,
*Nset, nset=_PickedSet15, internal
 4,
*Nset, nset=_PickedSet16, internal, generate
 1,  4,  1
*Elset, elset=__PickedSurf8_E2, internal, instance=plaque-1
  86, 183, 209, 211, 212
*Elset, elset=__PickedSurf8_E3, internal, instance=plaque-1
 101, 109
*Elset, elset=__PickedSurf8_E1, internal, instance=plaque-1
 193,
*Surface, type=ELEMENT, name=_PickedSurf8, internal
__PickedSurf8_E2, E2
__PickedSurf8_E3, E3
__PickedSurf8_E1, E1
*Elset, elset=__PickedSurf10_E3, internal, instance=plaque-1
 81, 93
*Elset, elset=__PickedSurf10_E1, internal, instance=plaque-1
 85,
*Elset, elset=__PickedSurf10_E2, internal, instance=plaque-1
  88, 181, 189, 190, 198
*Surface, type=ELEMENT, name=_PickedSurf10, internal
__PickedSurf10_E3, E3
__PickedSurf10_E1, E1
__PickedSurf10_E2, E2
*Elset, elset=__PickedSurf12_E3, internal, instance=plaque-1
  77,  92, 118, 199
*Elset, elset=__PickedSurf12_E2, internal, instance=plaque-1
 182, 186, 187, 196
*Surface, type=ELEMENT, name=_PickedSurf12, internal
__PickedSurf12_E3, E3
__PickedSurf12_E2, E2
*Elset, elset=__PickedSurf14_E3, internal, instance=plaque-1
  99, 111, 115
*Elset, elset=__PickedSurf14_E2, internal, instance=plaque-1
 184, 185, 202, 204, 206
*Surface, type=ELEMENT, name=_PickedSurf14, internal
__PickedSurf14_E3, E3
__PickedSurf14_E2, E2
** Constraint: Constraint-1
*Coupling, constraint name=Constraint-1, ref node=_PickedSet9, surface=_PickedSurf8
*Kinematic
** Constraint: Constraint-2
*Coupling, constraint name=Constraint-2, ref node=_PickedSet11, surface=_PickedSurf10
*Kinematic
** Constraint: Constraint-3
*Coupling, constraint name=Constraint-3, ref node=_PickedSet13, surface=_PickedSurf12
*Kinematic
** Constraint: Constraint-4
*Coupling, constraint name=Constraint-4, ref node=_PickedSet15, surface=_PickedSurf14
*Kinematic
*End Assembly
** 
** MATERIALS
** 
*Material, name=acier
*Density
 7.86e-09,
*Elastic
210000., 0.26
** ----------------------------------------------------------------
** 
** STEP: analyse_modale
** 
*Step, name=analyse_modale, nlgeom=NO, perturbation
*Frequency, eigensolver=Lanczos, sim, acoustic coupling=on, normalization=mass
, , 500., , , 
** 
** BOUNDARY CONDITIONS
** 
** Name: blocage Type: Symmetry/Antisymmetry/Encastre
*Boundary
_PickedSet16, ENCASTRE
** 
** OUTPUT REQUESTS
** 
*Restart, write, frequency=0
** 
** FIELD OUTPUT: F-Output-1
** 
*Output, field
*Node Output, variable=PRESELECT
** 
** HISTORY OUTPUT: H-Output-1
** 
*Output, history
*Energy Output, variable=ALL
*End Step
