*Heading
** Job name: vibration Model name: Model-1
** Generated by: Abaqus/CAE 2025
*Preprint, echo=NO, model=NO, history=NO, contact=NO
**
** PARTS
**
*Part, name=plaque
*Node
      1,    298.14502,    101.85498,           0.
      2,    296.97345,   99.0265503,           0.
      3,    298.14502,   96.1981277,           0.
      4,    300.97345,   95.0265503,           0.
      5,    303.80188,   96.1981277,           0.
      6,    304.97345,   99.0265503,           0.
      7,    303.80188,    101.85498,           0.
      8,    300.97345,    103.02655,           0.
      9,   96.1981277,    101.85498,           0.
     10,   95.0265503,   99.0265503,           0.
     11,   96.1981277,   96.1981277,           0.
     12,   99.0265503,   95.0265503,           0.
     13,    101.85498,   96.1981277,           0.
     14,    103.02655,   99.0265503,           0.
     15,    101.85498,    101.85498,           0.
     16,   99.0265503,    103.02655,           0.
     17,    101.85498,    298.14502,           0.
     18,    103.02655,    300.97345,           0.
     19,    101.85498,    303.80188,           0.
     20,   99.0265503,    304.97345,           0.
** ... 3673 like lines cut
*Element, type=S3
  1,  309, 3129,  279
  2, 3202,  481,  364
  3,  342,  244,  314
  4,  201,  289,  230
  5,  336,  241,  311
  6, 3133,  296,  235
  7,  171,  297,  267
  8, 3243,  421,  486
  9,  372,  323,  291
 10, 3131,  283,  221
 11,  494,  373, 3290
 12, 3224,  543,  426
 13,  560,  779,  632
 14,  381, 3217, 3235
 15, 3263,  461,  408
 16, 3051,  704,  909
 17,  511, 3251,  442
 18,  440,  384,  305
 19, 3220,  468,  403
 20, 3281, 3257,  620
** ... 108 like lines cut
*Element, type=S4R
 129,  201,  226,  258,  289
 130,  285,  321,  258,  226
 131,    5,  135,  166,  117
 132,    3,  118,  170,  136
 133,  118,    3,    2,  157
 134,  233,  259,  202,  169
 135,   11,  124,  169,  123
 136,   94, 3107, 3057,   95
 137,    9,  115,  153,  125
 138,  115,    9,   16,  152
 139,   23,  137,  154,  113
 140,  153,  228, 3142,  261
 141,  137,   23,   22,  175
 142,  147,   15,   14,  126
 143,  212,  147,  126, 3125
 144,   17,  141,  146,  140
 145,  116,  151,    8,    7
 146,  163, 3139,  220,  178
 147,  119,  157,    2,    1
 148,  127,  163,   14,   13
** ... 3556 like lines cut
*Nset, nset=_PickedSet2, internal, generate
    1,  3693,     1
*Elset, elset=_PickedSet2, internal, generate
    1,  3704,     1
** Section: tole
*Shell Section, elset=_PickedSet2, material=acier
0.5, 5
*End Part
**  
**
** ASSEMBLY
**
*Assembly, name=Assembly
**  
*Instance, name=plaque-1, part=plaque
*End Instance
**  
*Node
      1,   99.0265503,    300.97345,           0.
*Node
      2,   99.0265503,   99.0265503,           0.
*Node
      3,    300.97345,   99.0265503,           0.
*Node
      4,    300.97345,    300.97345,           0.
*Nset, nset=_PickedSet9, internal
 1,
*Nset, nset=_PickedSet11, internal
 2,
*Nset, nset=_PickedSet13, internal
 3,
*Nset, nset=_PickedSet15, internal
 4,
*Nset, nset=_PickedSet16, internal, generate
 1,  4,  1
*Elset, elset=__PickedSurf8_E2, internal, instance=plaque-1
 141, 243, 261
*Elset, elset=__PickedSurf8_E3, internal, instance=plaque-1
 156, 227
*Elset, elset=__PickedSurf8_E4, internal, instance=plaque-1
 208,
*Elset, elset=__PickedSurf8_E1, internal, instance=plaque-1
 231, 259
*Surface, type=ELEMENT, name=_PickedSurf8, internal
__PickedSurf8_E2, E2
__PickedSurf8_E3, E3
__PickedSurf8_E4, E4
__PickedSurf8_E1, E1
*Elset, elset=__PickedSurf10_E2, internal, instance=plaque-1
 138, 142, 244, 247
*Elset, elset=__PickedSurf10_E3, internal, instance=plaque-1
 148, 149, 222
*Elset, elset=__PickedSurf10_E1, internal, instance=plaque-1
 235,
*Surface, type=ELEMENT, name=_PickedSurf10, internal
__PickedSurf10_E2, E2
__PickedSurf10_E3, E3
__PickedSurf10_E1, E1
*Elset, elset=__PickedSurf12_E2, internal, instance=plaque-1
 133, 173, 237, 239
*Elset, elset=__PickedSurf12_E3, internal, instance=plaque-1
 145, 147, 151, 179
*Surface, type=ELEMENT, name=_PickedSurf12, internal
__PickedSurf12_E2, E2
__PickedSurf12_E3, E3
*Elset, elset=__PickedSurf14_E3, internal, instance=plaque-1
 154, 167, 194
*Elset, elset=__PickedSurf14_E2, internal, instance=plaque-1
 171, 249, 250, 253
*Elset, elset=__PickedSurf14_E1, internal, instance=plaque-1
 233,
*Surface, type=ELEMENT, name=_PickedSurf14, internal
__PickedSurf14_E3, E3
__PickedSurf14_E2, E2
__PickedSurf14_E1, E1
** Constraint: Constraint-1
*Coupling, constraint name=Constraint-1, ref node=_PickedSet9, surface=_PickedSurf8
*Kinematic
** Constraint: Constraint-2
*Coupling, constraint name=Constraint-2, ref node=_PickedSet11, surface=_PickedSurf10
*Kinematic
** Constraint: Constraint-3
*Coupling, constraint name=Constraint-3, ref node=_PickedSet13, surface=_PickedSurf12
*Kinematic
** Constraint: Constraint-4
*Coupling, constraint name=Constraint-4, ref node=_PickedSet15, surface=_PickedSurf14
*Kinematic
*End Assembly
** 
** MATERIALS
** 
*Material, name=acier
*Density
 7.86e-09,
*Elastic
210000., 0.26
** ----------------------------------------------------------------
** 
** STEP: analyse_modale
** 
*Step, name=analyse_modale, nlgeom=NO, perturbation
*Frequency, eigensolver=Lanczos, sim, acoustic coupling=on, normalization=mass
, , 500., , , 
** 
** BOUNDARY CONDITIONS
** 
** Name: blocage Type: Symmetry/Antisymmetry/Encastre
*Boundary
_PickedSet16, ENCASTRE
** 
** OUTPUT REQUESTS
** 
*Restart, write, frequency=0
** 
** FIELD OUTPUT: F-Output-1
** 
*Output, field
*Node Output, variable=PRESELECT
** 
** HISTORY OUTPUT: H-Output-1
** 
*Output, history
*Energy Output, variable=ALL
*End Step
