*Heading
** Job name: vibration Model name: Model-1
** Generated by: Abaqus/CAE 2025
*Preprint, echo=NO, model=NO, history=NO, contact=NO
**
** PARTS
**
*Part, name=plaque
*Node
      1,   222.487946,   177.512054,           0.
      2,    221.31636,    174.68364,           0.
      3,   222.487946,   171.855209,           0.
      4,    225.31636,    170.68364,           0.
      5,   228.144791,   171.855209,           0.
      6,    229.31636,    174.68364,           0.
      7,   228.144791,   177.512054,           0.
      8,    225.31636,    178.68364,           0.
      9,   171.855209,   177.512054,           0.
     10,    170.68364,    174.68364,           0.
     11,   171.855209,   171.855209,           0.
     12,    174.68364,    170.68364,           0.
     13,   177.512054,   171.855209,           0.
     14,    178.68364,    174.68364,           0.
     15,   177.512054,   177.512054,           0.
     16,    174.68364,    178.68364,           0.
     17,   177.512054,   222.487946,           0.
     18,    178.68364,    225.31636,           0.
     19,   177.512054,   228.144791,           0.
     20,    174.68364,    229.31636,           0.
** ... 1836 like lines cut
*Element, type=S3
 1,  182,  115,  145
 2,  248,  297,  162
 3, 1645, 1649,  172
 4,  328,  245,  279
 5, 1691,  223,  306
 6,  336,  225,  284
 7,  340,  222,  287
 8,  439,  313,  374
 9,  512,  370,  462
10,  396,  338,  340
11, 1730, 1753,  433
12,  509,  521,  604
13,  942,  988,  875
14, 1707,  481,  412
15,  632,  473,  547
16,  552,  402,  550
17, 1739, 1720,  802
18,  724,  557,  640
19, 1771,  575,  545
20,  745,  614,  672
** ... 58 like lines cut
*Element, type=S4R
  79,  331,  395,  275,  249
  80,  207,  117,  169,  254
  81,  118,  169,    5,    4
  82,  126,  153,   13,   12
  83, 1689,  405, 1671,  294
  84,  120,  171,   11,   10
  85, 1674,  553, 1711,  605
  86, 1412, 1646, 1513, 1515
  87,   10,  121,  164,  120
  88,    9,   16,  141,  175
  89,   23,   22,  122,  158
  90,   16,  113,  159,  141
  91,  149,  123,   14,  125
  92,  499,  569,  419,  422
  93,  123,  147,   15,   14
  94,  114,  154,    1,    8
  95,   12,  119,  166,  126
  96,  205,  129,  150,  243
  97,  237,  160,  185,  183
  98,    2,  124,  150,  129
** ... 1744 like lines cut
*Nset, nset=_PickedSet2, internal, generate
    1,  1856,     1
*Elset, elset=_PickedSet2, internal, generate
    1,  1842,     1
** Section: tole
*Shell Section, elset=_PickedSet2, material=acier
0.5, 5
*End Part
**  
**
** ASSEMBLY
**
*Assembly, name=Assembly
**  
*Instance, name=plaque-1, part=plaque
*End Instance
**  
*Node
      1,    174.68364,    225.31636,           0.
*Node
      2,    174.68364,    174.68364,           0.
*Node
      3,    225.31636,    174.68364,           0.
*Node
      4,    225.31636,    225.31636,           0.
*Nset, nset=_PickedSet9, internal
 1,
*Nset, nset=_PickedSet11, internal
 2,
*Nset, nset=_PickedSet13, internal
 3,
*Nset, nset=_PickedSet15, internal
 4,
*Nset, nset=_PickedSet16, internal, generate
 1,  4,  1
*Elset, elset=__PickedSurf8_E1, internal, instance=plaque-1
 89,
*Elset, elset=__PickedSurf8_E3, internal, instance=plaque-1
 110, 209
*Elset, elset=__PickedSurf8_E4, internal, instance=plaque-1
 176,
*Elset, elset=__PickedSurf8_E2, internal, instance=plaque-1
 184, 213, 214, 218
*Surface, type=ELEMENT, name=_PickedSurf8, internal
__PickedSurf8_E1, E1
__PickedSurf8_E3, E3
__PickedSurf8_E4, E4
__PickedSurf8_E2, E2
*Elset, elset=__PickedSurf10_E3, internal, instance=plaque-1
 82, 84, 93
*Elset, elset=__PickedSurf10_E1, internal, instance=plaque-1
 88,
*Elset, elset=__PickedSurf10_E2, internal, instance=plaque-1
 182, 190, 191, 196
*Surface, type=ELEMENT, name=_PickedSurf10, internal
__PickedSurf10_E3, E3
__PickedSurf10_E1, E1
__PickedSurf10_E2, E2
*Elset, elset=__PickedSurf12_E3, internal, instance=plaque-1
  81,  94, 120, 200
*Elset, elset=__PickedSurf12_E2, internal, instance=plaque-1
 183, 187, 188, 198
*Surface, type=ELEMENT, name=_PickedSurf12, internal
__PickedSurf12_E3, E3
__PickedSurf12_E2, E2
*Elset, elset=__PickedSurf14_E3, internal, instance=plaque-1
 100, 103
*Elset, elset=__PickedSurf14_E2, internal, instance=plaque-1
 117, 186, 204, 208, 211
*Elset, elset=__PickedSurf14_E1, internal, instance=plaque-1
 185,
*Surface, type=ELEMENT, name=_PickedSurf14, internal
__PickedSurf14_E3, E3
__PickedSurf14_E2, E2
__PickedSurf14_E1, E1
** Constraint: Constraint-1
*Coupling, constraint name=Constraint-1, ref node=_PickedSet9, surface=_PickedSurf8
*Kinematic
** Constraint: Constraint-2
*Coupling, constraint name=Constraint-2, ref node=_PickedSet11, surface=_PickedSurf10
*Kinematic
** Constraint: Constraint-3
*Coupling, constraint name=Constraint-3, ref node=_PickedSet13, surface=_PickedSurf12
*Kinematic
** Constraint: Constraint-4
*Coupling, constraint name=Constraint-4, ref node=_PickedSet15, surface=_PickedSurf14
*Kinematic
*End Assembly
** 
** MATERIALS
** 
*Material, name=acier
*Density
 7.86e-09,
*Elastic
210000., 0.26
** ----------------------------------------------------------------
** 
** STEP: analyse_modale
** 
*Step, name=analyse_modale, nlgeom=NO, perturbation
*Frequency, eigensolver=Lanczos, sim, acoustic coupling=on, normalization=mass
, , 500., , , 
** 
** BOUNDARY CONDITIONS
** 
** Name: blocage Type: Symmetry/Antisymmetry/Encastre
*Boundary
_PickedSet16, ENCASTRE
** 
** OUTPUT REQUESTS
** 
*Restart, write, frequency=0
** 
** FIELD OUTPUT: F-Output-1
** 
*Output, field
*Node Output, variable=PRESELECT
** 
** HISTORY OUTPUT: H-Output-1
** 
*Output, history
*Energy Output, variable=ALL
*End Step
