*Heading
** Job name: vibration Model name: Model-1
** Generated by: Abaqus/CAE 2025
*Preprint, echo=NO, model=NO, history=NO, contact=NO
**
** PARTS
**
*Part, name=plaque
*Node
      1,   244.626724,   155.373276,           0.
      2,   243.455139,   152.544861,           0.
      3,   244.626724,   149.716431,           0.
      4,   247.455139,   148.544861,           0.
      5,   250.283569,   149.716431,           0.
      6,   251.455139,   152.544861,           0.
      7,   250.283569,   155.373276,           0.
      8,   247.455139,   156.544861,           0.
      9,   149.716431,   155.373276,           0.
     10,   148.544861,   152.544861,           0.
     11,   149.716431,   149.716431,           0.
     12,   152.544861,   148.544861,           0.
     13,   155.373276,   149.716431,           0.
     14,   156.544861,   152.544861,           0.
     15,   155.373276,   155.373276,           0.
     16,   152.544861,   156.544861,           0.
     17,   155.373276,   244.626724,           0.
     18,   156.544861,   247.455139,           0.
     19,   155.373276,   250.283569,           0.
     20,   152.544861,   251.455139,           0.
** ... 2663 like lines cut
*Element, type=S3
 1, 1335, 1244, 1040
 2, 2306,  227,  203
 3,  213,  115,  143
 4,  446,  272,  351
 5, 2344,  342, 2345
 6, 2323,  187,  240
 7, 2379,  535,  603
 8,  259,  191,  225
 9,  261, 2369, 2348
10,  500, 2338,  465
11,  445, 2357,  317
12,  320,  298,  262
13,  423,  379,  335
14,  360,  326,  252
15,  490,  356,  443
16,  515,  453,  497
17, 2503,  588,  667
18, 2437, 2482,  432
19, 2460, 2512,  437
20, 2378,  691,  541
** ... 68 like lines cut
*Element, type=S4R
  89,  304,  344,  261,  231
  90,  447,  304,  270,  347
  91,    5,  118,  165,  117
  92,  347,  270,  303,  401
  93,   13,  126,  164,  125
  94,  119,  158,    4,    3
  95, 2337,  345,  263, 2312
  96,  120,  167,   11,   10
  97,  228,  349,  271,  200
  98, 2095, 2304, 2204, 2228
  99,   10,  121,  161,  120
 100,  241,  274,  238,  193
 101,  202,  121,  171,  222
 102,  133,   22,   21,  168
 103,  113,  154,   16,   15
 104,  123,   15,   14,  147
 105,  180,  123,  147,  207
 106, 2371,  549, 2411,  484
 107,   15,  123,  145,  113
 108,  114,  151,    1,    8
** ... 2566 like lines cut
*Nset, nset=_PickedSet2, internal, generate
    1,  2683,     1
*Elset, elset=_PickedSet2, internal, generate
    1,  2674,     1
** Section: tole
*Shell Section, elset=_PickedSet2, material=acier
0.5, 5
*End Part
**  
**
** ASSEMBLY
**
*Assembly, name=Assembly
**  
*Instance, name=plaque-1, part=plaque
*End Instance
**  
*Node
      1,   152.544861,   247.455139,           0.
*Node
      2,   152.544861,   152.544861,           0.
*Node
      3,   247.455139,   152.544861,           0.
*Node
      4,   247.455139,   247.455139,           0.
*Nset, nset=_PickedSet9, internal
 1,
*Nset, nset=_PickedSet11, internal
 2,
*Nset, nset=_PickedSet13, internal
 3,
*Nset, nset=_PickedSet15, internal
 4,
*Nset, nset=_PickedSet16, internal, generate
 1,  4,  1
*Elset, elset=__PickedSurf8_E2, internal, instance=plaque-1
 102, 197, 215, 219
*Elset, elset=__PickedSurf8_E3, internal, instance=plaque-1
 123, 127, 194, 212
*Surface, type=ELEMENT, name=_PickedSurf8, internal
__PickedSurf8_E2, E2
__PickedSurf8_E3, E3
*Elset, elset=__PickedSurf10_E3, internal, instance=plaque-1
  96, 103, 109, 124
*Elset, elset=__PickedSurf10_E2, internal, instance=plaque-1
 104, 110, 207
*Elset, elset=__PickedSurf10_E4, internal, instance=plaque-1
 187,
*Surface, type=ELEMENT, name=_PickedSurf10, internal
__PickedSurf10_E3, E3
__PickedSurf10_E2, E2
__PickedSurf10_E4, E4
*Elset, elset=__PickedSurf12_E3, internal, instance=plaque-1
  94, 108, 136
*Elset, elset=__PickedSurf12_E4, internal, instance=plaque-1
 112,
*Elset, elset=__PickedSurf12_E1, internal, instance=plaque-1
 196, 200
*Elset, elset=__PickedSurf12_E2, internal, instance=plaque-1
 199, 205
*Surface, type=ELEMENT, name=_PickedSurf12, internal
__PickedSurf12_E3, E3
__PickedSurf12_E4, E4
__PickedSurf12_E2, E2
__PickedSurf12_E1, E1
*Elset, elset=__PickedSurf14_E3, internal, instance=plaque-1
 116, 129, 132, 135
*Elset, elset=__PickedSurf14_E2, internal, instance=plaque-1
 119, 198, 211
*Elset, elset=__PickedSurf14_E4, internal, instance=plaque-1
 159,
*Surface, type=ELEMENT, name=_PickedSurf14, internal
__PickedSurf14_E3, E3
__PickedSurf14_E2, E2
__PickedSurf14_E4, E4
** Constraint: Constraint-1
*Coupling, constraint name=Constraint-1, ref node=_PickedSet9, surface=_PickedSurf8
*Kinematic
** Constraint: Constraint-2
*Coupling, constraint name=Constraint-2, ref node=_PickedSet11, surface=_PickedSurf10
*Kinematic
** Constraint: Constraint-3
*Coupling, constraint name=Constraint-3, ref node=_PickedSet13, surface=_PickedSurf12
*Kinematic
** Constraint: Constraint-4
*Coupling, constraint name=Constraint-4, ref node=_PickedSet15, surface=_PickedSurf14
*Kinematic
*End Assembly
** 
** MATERIALS
** 
*Material, name=acier
*Density
 7.86e-09,
*Elastic
210000., 0.26
** ----------------------------------------------------------------
** 
** STEP: analyse_modale
** 
*Step, name=analyse_modale, nlgeom=NO, perturbation
*Frequency, eigensolver=Lanczos, sim, acoustic coupling=on, normalization=mass
, , 500., , , 
** 
** BOUNDARY CONDITIONS
** 
** Name: blocage Type: Symmetry/Antisymmetry/Encastre
*Boundary
_PickedSet16, ENCASTRE
** 
** OUTPUT REQUESTS
** 
*Restart, write, frequency=0
** 
** FIELD OUTPUT: F-Output-1
** 
*Output, field
*Node Output, variable=PRESELECT
** 
** HISTORY OUTPUT: H-Output-1
** 
*Output, history
*Energy Output, variable=ALL
*End Step
