*Heading
** Job name: vibration Model name: Model-1
** Generated by: Abaqus/CAE 2025
*Preprint, echo=NO, model=NO, history=NO, contact=NO
**
** PARTS
**
*Part, name=plaque
*Node
      1,   303.399323,   96.6006775,           0.
      2,   302.227753,   93.7722549,           0.
      3,   303.399323,   90.9438248,           0.
      4,   306.227753,   89.7722549,           0.
      5,   309.056183,   90.9438248,           0.
      6,   310.227753,   93.7722549,           0.
      7,   309.056183,   96.6006775,           0.
      8,   306.227753,   97.7722549,           0.
      9,   90.9438248,   96.6006775,           0.
     10,   89.7722549,   93.7722549,           0.
     11,   90.9438248,   90.9438248,           0.
     12,   93.7722549,   89.7722549,           0.
     13,   96.6006775,   90.9438248,           0.
     14,   97.7722549,   93.7722549,           0.
     15,   96.6006775,   96.6006775,           0.
     16,   93.7722549,   97.7722549,           0.
     17,   96.6006775,   303.399323,           0.
     18,   97.7722549,   306.227753,           0.
     19,   96.6006775,   309.056183,           0.
     20,   93.7722549,   310.227753,           0.
** ... 3325 like lines cut
*Element, type=S3
  1,  261,  199,  234
  2,  696,  437,  571
  3,  118,  232,  153
  4,  141,  262,  176
  5,  200,  297,  231
  6,  224,  160,  197
  7, 2944, 2989,  264
  8, 2853,  488,  631
  9, 2945,  379,  302
 10,  298,  224,  197
 11, 2943,  341,  273
 12, 2938,  375,  298
 13, 2940,  626,  501
 14, 2994,  382,  305
 15,  391, 2988, 2996
 16,  283,  418,  347
 17,  488,  357,  422
 18,  672, 3026,  560
 19,  431,  373,  329
 20, 2949,  372,  330
** ... 98 like lines cut
*Element, type=S4R
 119,  118,  162,  259,  232
 120,  285,  324,  259,  227
 121,  118,    5,  136,  162
 122,    3,  119,  167,  137
 123,  119,    3,    2,  154
 124,  200,  233,  260,  297
 125,   11,  125,  165,  124
 126, 1823, 1095, 2841, 2869
 127,  126,  160,   10,    9
 128,  117,  174,   16,   15
 129,  166,  205,  170,  139
 130,  116,  149,   24,   23
 131,  220, 2908,  253,  291
 132,  278,  392,  336, 2929
 133, 3056,  446, 3044,  354
 134,  114,  175,    8,    7
 135,  183,  221,  159,  128
 136,  154,    2,  120, 2900
 137,  128,  159,   14,   13
 138,  128,   13,  129,  163
** ... 3213 like lines cut
*Nset, nset=_PickedSet2, internal, generate
    1,  3345,     1
*Elset, elset=_PickedSet2, internal, generate
    1,  3351,     1
** Section: tole
*Shell Section, elset=_PickedSet2, material=acier
0.5, 5
*End Part
**  
**
** ASSEMBLY
**
*Assembly, name=Assembly
**  
*Instance, name=plaque-1, part=plaque
*End Instance
**  
*Node
      1,   93.7722549,   306.227753,           0.
*Node
      2,   93.7722549,   93.7722549,           0.
*Node
      3,   306.227753,   93.7722549,           0.
*Node
      4,   306.227753,   306.227753,           0.
*Nset, nset=_PickedSet9, internal
 1,
*Nset, nset=_PickedSet11, internal
 2,
*Nset, nset=_PickedSet13, internal
 3,
*Nset, nset=_PickedSet15, internal
 4,
*Nset, nset=_PickedSet16, internal, generate
 1,  4,  1
*Elset, elset=__PickedSurf8_E3, internal, instance=plaque-1
 130, 143, 247
*Elset, elset=__PickedSurf8_E2, internal, instance=plaque-1
 150, 225, 233
*Elset, elset=__PickedSurf8_E4, internal, instance=plaque-1
 193,
*Elset, elset=__PickedSurf8_E1, internal, instance=plaque-1
 246,
*Surface, type=ELEMENT, name=_PickedSurf8, internal
__PickedSurf8_E3, E3
__PickedSurf8_E2, E2
__PickedSurf8_E4, E4
__PickedSurf8_E1, E1
*Elset, elset=__PickedSurf10_E3, internal, instance=plaque-1
 127, 128, 137, 170
*Elset, elset=__PickedSurf10_E2, internal, instance=plaque-1
 227, 235, 236, 239
*Surface, type=ELEMENT, name=_PickedSurf10, internal
__PickedSurf10_E3, E3
__PickedSurf10_E2, E2
*Elset, elset=__PickedSurf12_E2, internal, instance=plaque-1
 123, 158, 228, 230
*Elset, elset=__PickedSurf12_E3, internal, instance=plaque-1
 134, 162, 186
*Elset, elset=__PickedSurf12_E1, internal, instance=plaque-1
 250,
*Surface, type=ELEMENT, name=_PickedSurf12, internal
__PickedSurf12_E2, E2
__PickedSurf12_E3, E3
__PickedSurf12_E1, E1
*Elset, elset=__PickedSurf14_E3, internal, instance=plaque-1
 141, 179, 202
*Elset, elset=__PickedSurf14_E4, internal, instance=plaque-1
 142,
*Elset, elset=__PickedSurf14_E2, internal, instance=plaque-1
 156, 241, 243
*Elset, elset=__PickedSurf14_E1, internal, instance=plaque-1
 222,
*Surface, type=ELEMENT, name=_PickedSurf14, internal
__PickedSurf14_E3, E3
__PickedSurf14_E4, E4
__PickedSurf14_E2, E2
__PickedSurf14_E1, E1
** Constraint: Constraint-1
*Coupling, constraint name=Constraint-1, ref node=_PickedSet9, surface=_PickedSurf8
*Kinematic
** Constraint: Constraint-2
*Coupling, constraint name=Constraint-2, ref node=_PickedSet11, surface=_PickedSurf10
*Kinematic
** Constraint: Constraint-3
*Coupling, constraint name=Constraint-3, ref node=_PickedSet13, surface=_PickedSurf12
*Kinematic
** Constraint: Constraint-4
*Coupling, constraint name=Constraint-4, ref node=_PickedSet15, surface=_PickedSurf14
*Kinematic
*End Assembly
** 
** MATERIALS
** 
*Material, name=acier
*Density
 7.86e-09,
*Elastic
210000., 0.26
** ----------------------------------------------------------------
** 
** STEP: analyse_modale
** 
*Step, name=analyse_modale, nlgeom=NO, perturbation
*Frequency, eigensolver=Lanczos, sim, acoustic coupling=on, normalization=mass
, , 500., , , 
** 
** BOUNDARY CONDITIONS
** 
** Name: blocage Type: Symmetry/Antisymmetry/Encastre
*Boundary
_PickedSet16, ENCASTRE
** 
** OUTPUT REQUESTS
** 
*Restart, write, frequency=0
** 
** FIELD OUTPUT: F-Output-1
** 
*Output, field
*Node Output, variable=PRESELECT
** 
** HISTORY OUTPUT: H-Output-1
** 
*Output, history
*Energy Output, variable=ALL
*End Step
