*Heading
** Job name: vibration Model name: Model-1
** Generated by: Abaqus/CAE 2025
*Preprint, echo=NO, model=NO, history=NO, contact=NO
**
** PARTS
**
*Part, name=plaque
*Node
      1,   271.270111,   128.729889,           0.
      2,   270.098541,   125.901466,           0.
      3,   271.270111,   123.073036,           0.
      4,   274.098541,   121.901466,           0.
      5,   276.926971,   123.073036,           0.
      6,   278.098541,   125.901466,           0.
      7,   276.926971,   128.729889,           0.
      8,   274.098541,   129.901459,           0.
      9,   123.073036,   128.729889,           0.
     10,   121.901466,   125.901466,           0.
     11,   123.073036,   123.073036,           0.
     12,   125.901466,   121.901466,           0.
     13,   128.729889,   123.073036,           0.
     14,   129.901459,   125.901466,           0.
     15,   128.729889,   128.729889,           0.
     16,   125.901466,   129.901459,           0.
     17,   128.729889,   271.270111,           0.
     18,   129.901459,   274.098541,           0.
     19,   128.729889,   276.926971,           0.
     20,   125.901466,   278.098541,           0.
** ... 3254 like lines cut
*Element, type=S3
 1,  204,  138,  168
 2, 2890,  193,  210
 3,  334,  385,  268
 4,  335,  270, 2882
 5,  322,  253,  290
 6,  308,  242,  276
 7,  341,  306,  278
 8,  405,  338,  342
 9,  478,  430,  398
10,  502,  433,  479
11, 2959,  484,  610
12,  959,  801,  875
13,  813,  574,  648
14, 2950,  721,  568
15,  393,  597,  411
16, 3053,  687,  843
17,  880,  660,  718
18,  672,  492,  598
19, 2956,  560,  470
20,  685,  562,  634
** ... 78 like lines cut
*Element, type=S4R
  99,    6,  160,  122,    7
 100,    5,  137,  165,  119
 101,    3,  120,  168,  138
 102,  164,  130,   13,  129
 103,  170,  125,  199,  232
 104,   11,  126,  167,  125
 105,   94, 2843, 2765,   95
 106,    9,  118,  176,  127
 107,  116,  149,   16,   15
 108,   23,  139,  148,  117
 109,  265,  176,  224,  289
 110,  117,  146,   24,   23
 111,  117,  148,  219,  180
 112,  304,  343,  339, 2901
 113,  114,  156,    8,    7
 114,  188,  218,  154,  130
 115,  121,  151,    2,    1
 116,  125,  170,   12,   11
 117,  119,  160,    6,    5
 118,  142,  155,   18,   17
** ... 3152 like lines cut
*Nset, nset=_PickedSet2, internal, generate
    1,  3274,     1
*Elset, elset=_PickedSet2, internal, generate
    1,  3270,     1
** Section: tole
*Shell Section, elset=_PickedSet2, material=acier
0.5, 5
*End Part
**  
**
** ASSEMBLY
**
*Assembly, name=Assembly
**  
*Instance, name=plaque-1, part=plaque
*End Instance
**  
*Node
      1,   125.901466,   274.098541,           0.
*Node
      2,   125.901466,   125.901466,           0.
*Node
      3,   274.098541,   125.901466,           0.
*Node
      4,   274.098541,   274.098541,           0.
*Nset, nset=_PickedSet9, internal
 1,
*Nset, nset=_PickedSet11, internal
 2,
*Nset, nset=_PickedSet13, internal
 3,
*Nset, nset=_PickedSet15, internal
 4,
*Nset, nset=_PickedSet16, internal, generate
 1,  4,  1
*Elset, elset=__PickedSurf8_E3, internal, instance=plaque-1
 110, 118, 123, 193
*Elset, elset=__PickedSurf8_E2, internal, instance=plaque-1
 130, 201, 210
*Elset, elset=__PickedSurf8_E4, internal, instance=plaque-1
 169,
*Surface, type=ELEMENT, name=_PickedSurf8, internal
__PickedSurf8_E3, E3
__PickedSurf8_E2, E2
__PickedSurf8_E4, E4
*Elset, elset=__PickedSurf10_E3, internal, instance=plaque-1
 107, 116, 186
*Elset, elset=__PickedSurf10_E4, internal, instance=plaque-1
 183,
*Elset, elset=__PickedSurf10_E2, internal, instance=plaque-1
 200, 203, 216
*Elset, elset=__PickedSurf10_E1, internal, instance=plaque-1
 214,
*Surface, type=ELEMENT, name=_PickedSurf10, internal
__PickedSurf10_E3, E3
__PickedSurf10_E4, E4
__PickedSurf10_E2, E2
__PickedSurf10_E1, E1
*Elset, elset=__PickedSurf12_E4, internal, instance=plaque-1
 99,
*Elset, elset=__PickedSurf12_E3, internal, instance=plaque-1
 113, 115, 117, 146
*Elset, elset=__PickedSurf12_E2, internal, instance=plaque-1, generate
 205,  207,    1
*Surface, type=ELEMENT, name=_PickedSurf12, internal
__PickedSurf12_E4, E4
__PickedSurf12_E3, E3
__PickedSurf12_E2, E2
*Elset, elset=__PickedSurf14_E3, internal, instance=plaque-1
 133, 158
*Elset, elset=__PickedSurf14_E2, internal, instance=plaque-1
 197, 218, 220, 222
*Elset, elset=__PickedSurf14_E1, internal, instance=plaque-1
 198, 219
*Surface, type=ELEMENT, name=_PickedSurf14, internal
__PickedSurf14_E3, E3
__PickedSurf14_E2, E2
__PickedSurf14_E1, E1
** Constraint: Constraint-1
*Coupling, constraint name=Constraint-1, ref node=_PickedSet9, surface=_PickedSurf8
*Kinematic
** Constraint: Constraint-2
*Coupling, constraint name=Constraint-2, ref node=_PickedSet11, surface=_PickedSurf10
*Kinematic
** Constraint: Constraint-3
*Coupling, constraint name=Constraint-3, ref node=_PickedSet13, surface=_PickedSurf12
*Kinematic
** Constraint: Constraint-4
*Coupling, constraint name=Constraint-4, ref node=_PickedSet15, surface=_PickedSurf14
*Kinematic
*End Assembly
** 
** MATERIALS
** 
*Material, name=acier
*Density
 7.86e-09,
*Elastic
210000., 0.26
** ----------------------------------------------------------------
** 
** STEP: analyse_modale
** 
*Step, name=analyse_modale, nlgeom=NO, perturbation
*Frequency, eigensolver=Lanczos, sim, acoustic coupling=on, normalization=mass
, , 500., , , 
** 
** BOUNDARY CONDITIONS
** 
** Name: blocage Type: Symmetry/Antisymmetry/Encastre
*Boundary
_PickedSet16, ENCASTRE
** 
** OUTPUT REQUESTS
** 
*Restart, write, frequency=0
** 
** FIELD OUTPUT: F-Output-1
** 
*Output, field
*Node Output, variable=PRESELECT
** 
** HISTORY OUTPUT: H-Output-1
** 
*Output, history
*Energy Output, variable=ALL
*End Step
