*Heading
** Job name: vibration Model name: Model-1
** Generated by: Abaqus/CAE 2025
*Preprint, echo=NO, model=NO, history=NO, contact=NO
**
** PARTS
**
*Part, name=plaque
*Node
      1,   338.566895,   61.4330978,           0.
      2,   337.395325,   58.6046715,           0.
      3,   338.566895,   55.7762451,           0.
      4,   341.395325,   54.6046715,           0.
      5,   344.223755,   55.7762451,           0.
      6,   345.395325,   58.6046715,           0.
      7,   344.223755,   61.4330978,           0.
      8,   341.395325,   62.6046715,           0.
      9,   55.7762451,   61.4330978,           0.
     10,   54.6046715,   58.6046715,           0.
     11,   55.7762451,   55.7762451,           0.
     12,   58.6046715,   54.6046715,           0.
     13,   61.4330978,   55.7762451,           0.
     14,   62.6046715,   58.6046715,           0.
     15,   61.4330978,   61.4330978,           0.
     16,   58.6046715,   62.6046715,           0.
     17,   61.4330978,   338.566895,           0.
     18,   62.6046715,   341.395325,           0.
     19,   61.4330978,   344.223755,           0.
     20,   58.6046715,   345.395325,           0.
** ... 1874 like lines cut
*Element, type=S3
 1,  189,  129,  168
 2,  211,  236,  160
 3,  200,  177,  150
 4,  130,  217,  162
 5,  286,  227,  285
 6,  188,  122,  165
 7,  192,  131,  148
 8, 1665,  328,  257
 9,  223,  120,  154
10, 1653,  227,  191
11,  197,  314, 1633
12, 1636,  257,  204
13,  322,  290,  236
14,  363, 1666,  428
15,  256,  392,  423
16,  303,  245,  279
17,  390, 1655,  355
18, 1686, 1697,  263
19,  109, 1616,  110
20,  403,  375,  362
** ... 46 like lines cut
*Element, type=S4R
  67,  216,  245,  152, 1631
  68,  163,  182,  115, 1609
  69, 1609,    5,    4,  131
  70,  116,  164,    3,    2
  71,  121,  154,   11,   10
  72,  224,  158,  246,  270
  73,  122, 1611,   10,    9
  74,  166,   16,  114, 1610
  75,  146,  193,  144,  136
  76,  144,   23,   22,  136
  77,  114,   16,   15,  145
  78,  197,  139,  144,  221
  79,  357,  324,  360,  399
  80, 1669,  302,  265,  212
  81,  123,  145,   15,   14
  82,  212,  176,  262, 1669
  83,  123,   14,  124,  156
  84,  125,  155,   13,   12
  85,  115,  152,  119,    6
  86,  145,  123,  206,  202
** ... 1788 like lines cut
*Nset, nset=_PickedSet2, internal, generate
    1,  1894,     1
*Elset, elset=_PickedSet2, internal, generate
    1,  1874,     1
** Section: tole
*Shell Section, elset=_PickedSet2, material=acier
0.5, 5
*End Part
**  
**
** ASSEMBLY
**
*Assembly, name=Assembly
**  
*Instance, name=plaque-1, part=plaque
*End Instance
**  
*Node
      1,   58.6046715,   341.395325,           0.
*Node
      2,   58.6046715,   58.6046715,           0.
*Node
      3,   341.395325,   58.6046715,           0.
*Node
      4,   341.395325,   341.395325,           0.
*Nset, nset=_PickedSet9, internal
 1,
*Nset, nset=_PickedSet11, internal
 2,
*Nset, nset=_PickedSet13, internal
 3,
*Nset, nset=_PickedSet15, internal
 4,
*Nset, nset=_PickedSet16, internal, generate
 1,  4,  1
*Elset, elset=__PickedSurf8_E2, internal, instance=plaque-1
  76, 163, 164, 183, 188
*Elset, elset=__PickedSurf8_E4, internal, instance=plaque-1
 93, 94
*Elset, elset=__PickedSurf8_E3, internal, instance=plaque-1
 96,
*Surface, type=ELEMENT, name=_PickedSurf8, internal
__PickedSurf8_E2, E2
__PickedSurf8_E4, E4
__PickedSurf8_E3, E3
*Elset, elset=__PickedSurf10_E3, internal, instance=plaque-1
 71, 73, 81, 84
*Elset, elset=__PickedSurf10_E2, internal, instance=plaque-1
  77, 166, 168, 170
*Surface, type=ELEMENT, name=_PickedSurf10, internal
__PickedSurf10_E3, E3
__PickedSurf10_E2, E2
*Elset, elset=__PickedSurf12_E2, internal, instance=plaque-1
  69,  97, 159, 161
*Elset, elset=__PickedSurf12_E3, internal, instance=plaque-1
  70, 104
*Elset, elset=__PickedSurf12_E4, internal, instance=plaque-1
  98, 109
*Surface, type=ELEMENT, name=_PickedSurf12, internal
__PickedSurf12_E2, E2
__PickedSurf12_E3, E3
__PickedSurf12_E4, E4
*Elset, elset=__PickedSurf14_E3, internal, instance=plaque-1
 87,
*Elset, elset=__PickedSurf14_E2, internal, instance=plaque-1
 100, 103, 172, 176, 178
*Elset, elset=__PickedSurf14_E1, internal, instance=plaque-1
 174, 177
*Surface, type=ELEMENT, name=_PickedSurf14, internal
__PickedSurf14_E3, E3
__PickedSurf14_E2, E2
__PickedSurf14_E1, E1
** Constraint: Constraint-1
*Coupling, constraint name=Constraint-1, ref node=_PickedSet9, surface=_PickedSurf8
*Kinematic
** Constraint: Constraint-2
*Coupling, constraint name=Constraint-2, ref node=_PickedSet11, surface=_PickedSurf10
*Kinematic
** Constraint: Constraint-3
*Coupling, constraint name=Constraint-3, ref node=_PickedSet13, surface=_PickedSurf12
*Kinematic
** Constraint: Constraint-4
*Coupling, constraint name=Constraint-4, ref node=_PickedSet15, surface=_PickedSurf14
*Kinematic
*End Assembly
** 
** MATERIALS
** 
*Material, name=acier
*Density
 7.86e-09,
*Elastic
210000., 0.26
** ----------------------------------------------------------------
** 
** STEP: analyse_modale
** 
*Step, name=analyse_modale, nlgeom=NO, perturbation
*Frequency, eigensolver=Lanczos, sim, acoustic coupling=on, normalization=mass
, , 500., , , 
** 
** BOUNDARY CONDITIONS
** 
** Name: blocage Type: Symmetry/Antisymmetry/Encastre
*Boundary
_PickedSet16, ENCASTRE
** 
** OUTPUT REQUESTS
** 
*Restart, write, frequency=0
** 
** FIELD OUTPUT: F-Output-1
** 
*Output, field
*Node Output, variable=PRESELECT
** 
** HISTORY OUTPUT: H-Output-1
** 
*Output, history
*Energy Output, variable=ALL
*End Step
