*Heading
** Job name: vibration Model name: Model-1
** Generated by: Abaqus/CAE 2025
*Preprint, echo=NO, model=NO, history=NO, contact=NO
**
** PARTS
**
*Part, name=plaque
*Node
      1,   307.522919,   92.4770813,           0.
      2,   306.351349,   89.6486588,           0.
      3,   307.522919,   86.8202286,           0.
      4,   310.351349,   85.6486588,           0.
      5,   313.179779,   86.8202286,           0.
      6,   314.351349,   89.6486588,           0.
      7,   313.179779,   92.4770813,           0.
      8,   310.351349,   93.6486588,           0.
      9,   86.8202286,   92.4770813,           0.
     10,   85.6486588,   89.6486588,           0.
     11,   86.8202286,   86.8202286,           0.
     12,   89.6486588,   85.6486588,           0.
     13,   92.4770813,   86.8202286,           0.
     14,   93.6486588,   89.6486588,           0.
     15,   92.4770813,   92.4770813,           0.
     16,   89.6486588,   93.6486588,           0.
     17,   92.4770813,   307.522919,           0.
     18,   93.6486588,   310.351349,           0.
     19,   92.4770813,   313.179779,           0.
     20,   89.6486588,   314.351349,           0.
** ... 3258 like lines cut
*Element, type=S3
  1,  198,  118,  161
  2,  192,  300,  222
  3, 2793,  371,  288
  4, 2808,  383,  303
  5, 2827, 2781,  289
  6,  199,  304,  228
  7,  337,  365,  291
  8, 2826,  378,  331
  9, 2816,  408,  451
 10, 2790,  322,  262
 11, 2818,  323,  248
 12,  287,  285,  270
 13,  275,  357, 2881
 14,  351, 2708, 2859
 15,  798,  733,  663
 16,  598,  476,  527
 17,  451,  519,  315
 18,  492,  420,  371
 19,  519,  582,  392
 20, 2911, 2942,  446
** ... 84 like lines cut
*Element, type=S4R
 105,  198,  229,  153,  118
 106,  337,  265,  285,  381
 107,  118,    5,  136,  161
 108,    3,  119,  201,    4
 109,  119,    3,    2,  152
 110,  335,  382,  304,  259
 111,   11,  125,  164,  124
 112, 2725, 2735, 2769,  973
 113,  126,  159,   10,    9
 114,  117,  172,   16,   15
 115,  116,   23,  137,  174
 116,  116,  148,   24,   23
 117,  249,  296, 2786,  171
 118,  206,  144, 2783,  271
 119,  362,  461,  396,  278
 120,  114,  173,    8,    7
 121,  181,  220,  158,  128
 122,  152,    2,  120, 2775
 123,  128,  158,   14,   13
 124,  124,  160,   12,   11
** ... 3153 like lines cut
*Nset, nset=_PickedSet2, internal, generate
    1,  3278,     1
*Elset, elset=_PickedSet2, internal, generate
    1,  3277,     1
** Section: tole
*Shell Section, elset=_PickedSet2, material=acier
0.5, 5
*End Part
**  
**
** ASSEMBLY
**
*Assembly, name=Assembly
**  
*Instance, name=plaque-1, part=plaque
*End Instance
**  
*Node
      1,   89.6486588,   310.351349,           0.
*Node
      2,   89.6486588,   89.6486588,           0.
*Node
      3,   310.351349,   89.6486588,           0.
*Node
      4,   310.351349,   310.351349,           0.
*Nset, nset=_PickedSet9, internal
 1,
*Nset, nset=_PickedSet11, internal
 2,
*Nset, nset=_PickedSet13, internal
 3,
*Nset, nset=_PickedSet15, internal
 4,
*Nset, nset=_PickedSet16, internal, generate
 1,  4,  1
*Elset, elset=__PickedSurf8_E3, internal, instance=plaque-1
 116, 130, 201
*Elset, elset=__PickedSurf8_E2, internal, instance=plaque-1
 137, 207, 215
*Elset, elset=__PickedSurf8_E4, internal, instance=plaque-1
 179,
*Elset, elset=__PickedSurf8_E1, internal, instance=plaque-1
 233,
*Surface, type=ELEMENT, name=_PickedSurf8, internal
__PickedSurf8_E3, E3
__PickedSurf8_E2, E2
__PickedSurf8_E4, E4
__PickedSurf8_E1, E1
*Elset, elset=__PickedSurf10_E3, internal, instance=plaque-1
 113, 114, 123, 124
*Elset, elset=__PickedSurf10_E2, internal, instance=plaque-1
 208, 217, 219, 222
*Surface, type=ELEMENT, name=_PickedSurf10, internal
__PickedSurf10_E3, E3
__PickedSurf10_E2, E2
*Elset, elset=__PickedSurf12_E4, internal, instance=plaque-1
 108, 211
*Elset, elset=__PickedSurf12_E2, internal, instance=plaque-1
 109, 146, 209, 210
*Elset, elset=__PickedSurf12_E3, internal, instance=plaque-1
 120, 125
*Surface, type=ELEMENT, name=_PickedSurf12, internal
__PickedSurf12_E4, E4
__PickedSurf12_E2, E2
__PickedSurf12_E3, E3
*Elset, elset=__PickedSurf14_E3, internal, instance=plaque-1
 128, 140, 165
*Elset, elset=__PickedSurf14_E2, internal, instance=plaque-1
 144, 224, 225, 228
*Elset, elset=__PickedSurf14_E1, internal, instance=plaque-1
 204,
*Surface, type=ELEMENT, name=_PickedSurf14, internal
__PickedSurf14_E3, E3
__PickedSurf14_E2, E2
__PickedSurf14_E1, E1
** Constraint: Constraint-1
*Coupling, constraint name=Constraint-1, ref node=_PickedSet9, surface=_PickedSurf8
*Kinematic
** Constraint: Constraint-2
*Coupling, constraint name=Constraint-2, ref node=_PickedSet11, surface=_PickedSurf10
*Kinematic
** Constraint: Constraint-3
*Coupling, constraint name=Constraint-3, ref node=_PickedSet13, surface=_PickedSurf12
*Kinematic
** Constraint: Constraint-4
*Coupling, constraint name=Constraint-4, ref node=_PickedSet15, surface=_PickedSurf14
*Kinematic
*End Assembly
** 
** MATERIALS
** 
*Material, name=acier
*Density
 7.86e-09,
*Elastic
210000., 0.26
** ----------------------------------------------------------------
** 
** STEP: analyse_modale
** 
*Step, name=analyse_modale, nlgeom=NO, perturbation
*Frequency, eigensolver=Lanczos, sim, acoustic coupling=on, normalization=mass
, , 500., , , 
** 
** BOUNDARY CONDITIONS
** 
** Name: blocage Type: Symmetry/Antisymmetry/Encastre
*Boundary
_PickedSet16, ENCASTRE
** 
** OUTPUT REQUESTS
** 
*Restart, write, frequency=0
** 
** FIELD OUTPUT: F-Output-1
** 
*Output, field
*Node Output, variable=PRESELECT
** 
** HISTORY OUTPUT: H-Output-1
** 
*Output, history
*Energy Output, variable=ALL
*End Step
