*Heading
** Job name: vibration Model name: Model-1
** Generated by: Abaqus/CAE 2025
*Preprint, echo=NO, model=NO, history=NO, contact=NO
**
** PARTS
**
*Part, name=plaque
*Node
      1,   236.047546,   163.952454,           0.
      2,   234.875977,   161.124023,           0.
      3,   236.047546,   158.295593,           0.
      4,   238.875977,   157.124023,           0.
      5,   241.704407,   158.295593,           0.
      6,   242.875977,   161.124023,           0.
      7,   241.704407,   163.952454,           0.
      8,   238.875977,   165.124023,           0.
      9,   158.295593,   163.952454,           0.
     10,   157.124023,   161.124023,           0.
     11,   158.295593,   158.295593,           0.
     12,   161.124023,   157.124023,           0.
     13,   163.952454,   158.295593,           0.
     14,   165.124023,   161.124023,           0.
     15,   163.952454,   163.952454,           0.
     16,   161.124023,   165.124023,           0.
     17,   163.952454,   236.047546,           0.
     18,   165.124023,   238.875977,           0.
     19,   163.952454,   241.704407,           0.
     20,   161.124023,   242.875977,           0.
** ... 2280 like lines cut
*Element, type=S3
 1, 2014,  189,  238
 2, 2000,  216,  330
 3, 2003,  217,  331
 4,  625, 2022,  485
 5, 2115, 2072, 2076
 6, 2033,  414, 2072
 7,  369,  262,  342
 8, 2023,  409,  346
 9,  623,  482,  547
10, 1150, 1052,  959
11, 2031,  471,  355
12,  436,  365,  371
13,  472,  541,  360
14,  463, 2045,  515
15,  453, 2106,  577
16, 1670, 1623, 1641
17, 2084,  872,  702
18, 2103,  896,  720
19, 1454, 1314, 1362
20, 1232, 1163, 1063
** ... 64 like lines cut
*Element, type=S4R
  85, 2021,  354,  269, 2009
  86,  271,  463, 2044,  308
  87,  117,  169,    5,    4
  88,  169,  117,  199,  231
  89,  190,  126,  168,  239
  90,    3,    2,  127,  173
  91,  232,  355,  270,  198
  92,   11,  120,  171,  119
  93, 2069,  540,  780,  861
  94, 1862, 1754,   55,   54
  95,    9,  113,  159,  121
  96,  219,  143, 2006,  293
  97,  166,  121,  203,  229
  98,   23,  122,  143,  114
  99,   15,  123,  155,  139
 100,  182,  210,  155,  123
 101,  116,  157,    8,    7
 102,  123,   15,   14,  147
 103,  140,  157,  209,  184
 104,  125,  147,   14,   13
** ... 2185 like lines cut
*Nset, nset=_PickedSet2, internal, generate
    1,  2300,     1
*Elset, elset=_PickedSet2, internal, generate
    1,  2289,     1
** Section: tole
*Shell Section, elset=_PickedSet2, material=acier
0.5, 5
*End Part
**  
**
** ASSEMBLY
**
*Assembly, name=Assembly
**  
*Instance, name=plaque-1, part=plaque
*End Instance
**  
*Node
      1,   161.124023,   238.875977,           0.
*Node
      2,   161.124023,   161.124023,           0.
*Node
      3,   238.875977,   161.124023,           0.
*Node
      4,   238.875977,   238.875977,           0.
*Nset, nset=_PickedSet9, internal
 1,
*Nset, nset=_PickedSet11, internal
 2,
*Nset, nset=_PickedSet13, internal
 3,
*Nset, nset=_PickedSet15, internal
 4,
*Nset, nset=_PickedSet16, internal, generate
 1,  4,  1
*Elset, elset=__PickedSurf8_E3, internal, instance=plaque-1
 110, 118, 123, 209
*Elset, elset=__PickedSurf8_E2, internal, instance=plaque-1
 191, 212, 216
*Elset, elset=__PickedSurf8_E4, internal, instance=plaque-1
 200,
*Surface, type=ELEMENT, name=_PickedSurf8, internal
__PickedSurf8_E3, E3
__PickedSurf8_E2, E2
__PickedSurf8_E4, E4
*Elset, elset=__PickedSurf10_E2, internal, instance=plaque-1
 102, 189, 197, 203
*Elset, elset=__PickedSurf10_E3, internal, instance=plaque-1
 104, 105, 181
*Elset, elset=__PickedSurf10_E1, internal, instance=plaque-1
 190,
*Surface, type=ELEMENT, name=_PickedSurf10, internal
__PickedSurf10_E2, E2
__PickedSurf10_E3, E3
__PickedSurf10_E1, E1
*Elset, elset=__PickedSurf12_E3, internal, instance=plaque-1
  87, 101, 109
*Elset, elset=__PickedSurf12_E1, internal, instance=plaque-1
 90,
*Elset, elset=__PickedSurf12_E4, internal, instance=plaque-1
 107,
*Elset, elset=__PickedSurf12_E2, internal, instance=plaque-1
 131, 194, 202
*Surface, type=ELEMENT, name=_PickedSurf12, internal
__PickedSurf12_E3, E3
__PickedSurf12_E1, E1
__PickedSurf12_E4, E4
__PickedSurf12_E2, E2
*Elset, elset=__PickedSurf14_E3, internal, instance=plaque-1
 111, 114, 153
*Elset, elset=__PickedSurf14_E2, internal, instance=plaque-1
 130, 207, 208, 210
*Elset, elset=__PickedSurf14_E1, internal, instance=plaque-1
 192,
*Surface, type=ELEMENT, name=_PickedSurf14, internal
__PickedSurf14_E3, E3
__PickedSurf14_E2, E2
__PickedSurf14_E1, E1
** Constraint: Constraint-1
*Coupling, constraint name=Constraint-1, ref node=_PickedSet9, surface=_PickedSurf8
*Kinematic
** Constraint: Constraint-2
*Coupling, constraint name=Constraint-2, ref node=_PickedSet11, surface=_PickedSurf10
*Kinematic
** Constraint: Constraint-3
*Coupling, constraint name=Constraint-3, ref node=_PickedSet13, surface=_PickedSurf12
*Kinematic
** Constraint: Constraint-4
*Coupling, constraint name=Constraint-4, ref node=_PickedSet15, surface=_PickedSurf14
*Kinematic
*End Assembly
** 
** MATERIALS
** 
*Material, name=acier
*Density
 7.86e-09,
*Elastic
210000., 0.26
** ----------------------------------------------------------------
** 
** STEP: analyse_modale
** 
*Step, name=analyse_modale, nlgeom=NO, perturbation
*Frequency, eigensolver=Lanczos, sim, acoustic coupling=on, normalization=mass
, , 500., , , 
** 
** BOUNDARY CONDITIONS
** 
** Name: blocage Type: Symmetry/Antisymmetry/Encastre
*Boundary
_PickedSet16, ENCASTRE
** 
** OUTPUT REQUESTS
** 
*Restart, write, frequency=0
** 
** FIELD OUTPUT: F-Output-1
** 
*Output, field
*Node Output, variable=PRESELECT
** 
** HISTORY OUTPUT: H-Output-1
** 
*Output, history
*Energy Output, variable=ALL
*End Step
