*Heading
** Job name: vibration Model name: Model-1
** Generated by: Abaqus/CAE 2025
*Preprint, echo=NO, model=NO, history=NO, contact=NO
**
** PARTS
**
*Part, name=plaque
*Node
      1,   276.887207,   123.112793,           0.
      2,   275.715637,   120.284363,           0.
      3,   276.887207,    117.45594,           0.
      4,   279.715637,   116.284363,           0.
      5,   282.544067,    117.45594,           0.
      6,   283.715637,   120.284363,           0.
      7,   282.544067,   123.112793,           0.
      8,   279.715637,   124.284363,           0.
      9,    117.45594,   123.112793,           0.
     10,   116.284363,   120.284363,           0.
     11,    117.45594,    117.45594,           0.
     12,   120.284363,   116.284363,           0.
     13,   123.112793,    117.45594,           0.
     14,   124.284363,   120.284363,           0.
     15,   123.112793,   123.112793,           0.
     16,   120.284363,   124.284363,           0.
     17,   123.112793,   276.887207,           0.
     18,   124.284363,   279.715637,           0.
     19,   123.112793,   282.544067,           0.
     20,   120.284363,   283.715637,           0.
** ... 3491 like lines cut
*Element, type=S3
  1,  456,  349,  415
  2,  228,  117,  168
  3,  204,  136,  171
  4, 1246,  976, 1153
  5, 3118,  248,  286
  6, 3072,  200,  203
  7, 3071,  202,  205
  8,  242,  181,  215
  9, 3085,  191,  209
 10,  328,  379,  261
 11,  335,  301,  272
 12,  457,  350,  416
 13,  303,  239,  270
 14, 3112, 3080,  262
 15,  243,  337,  298
 16,  391,  344,  335
 17,  388,  307,  339
 18,  387,  470,  412
 19,  462,  309,  392
 20,  449,  414,  386
** ... 100 like lines cut
*Element, type=S4R
 121,  321,  227,  228,  288
 122,  327,  377,  288,  260
 123,    5,  135,  168,  117
 124,    3,  118,  171,  136
 125,  127,  165,  196, 3057
 126,  170,  254,  197,  123
 127,   11,  124,  170,  123
 128,   94, 3028, 2957,   95
 129,    9,  115,  158,  125
 130,  147,  209,  191,  115
 131,   23,  137,  146,  113
 132,  203,  220,  258, 3072
 133,   24,   23,  113,  154
 134,  142,  155,  213,  185
 135,   17,  141,  152,  140
 136,  116,  157,    8,    7
 137, 3110,  268,  306,  242
 138,  119,  149,    2,    1
 139,  123,  165,   12,   11
 140,  222,  285,  204,  171
** ... 3378 like lines cut
*Nset, nset=_PickedSet2, internal, generate
    1,  3511,     1
*Elset, elset=_PickedSet2, internal, generate
    1,  3518,     1
** Section: tole
*Shell Section, elset=_PickedSet2, material=acier
0.5, 5
*End Part
**  
**
** ASSEMBLY
**
*Assembly, name=Assembly
**  
*Instance, name=plaque-1, part=plaque
*End Instance
**  
*Node
      1,   120.284363,   279.715637,           0.
*Node
      2,   120.284363,   120.284363,           0.
*Node
      3,   279.715637,   120.284363,           0.
*Node
      4,   279.715637,   279.715637,           0.
*Nset, nset=_PickedSet9, internal
 1,
*Nset, nset=_PickedSet11, internal
 2,
*Nset, nset=_PickedSet13, internal
 3,
*Nset, nset=_PickedSet15, internal
 4,
*Nset, nset=_PickedSet16, internal, generate
 1,  4,  1
*Elset, elset=__PickedSurf8_E1, internal, instance=plaque-1
 133,
*Elset, elset=__PickedSurf8_E3, internal, instance=plaque-1
 143, 147, 215
*Elset, elset=__PickedSurf8_E4, internal, instance=plaque-1
 193,
*Elset, elset=__PickedSurf8_E2, internal, instance=plaque-1
 218, 229, 249
*Surface, type=ELEMENT, name=_PickedSurf8, internal
__PickedSurf8_E1, E1
__PickedSurf8_E3, E3
__PickedSurf8_E4, E4
__PickedSurf8_E2, E2
*Elset, elset=__PickedSurf10_E3, internal, instance=plaque-1
 139, 210
*Elset, elset=__PickedSurf10_E4, internal, instance=plaque-1
 168,
*Elset, elset=__PickedSurf10_E2, internal, instance=plaque-1
 222, 231, 234
*Elset, elset=__PickedSurf10_E1, internal, instance=plaque-1
 223, 235
*Surface, type=ELEMENT, name=_PickedSurf10, internal
__PickedSurf10_E3, E3
__PickedSurf10_E4, E4
__PickedSurf10_E2, E2
__PickedSurf10_E1, E1
*Elset, elset=__PickedSurf12_E3, internal, instance=plaque-1
 136, 138, 141, 165
*Elset, elset=__PickedSurf12_E4, internal, instance=plaque-1
 184,
*Elset, elset=__PickedSurf12_E2, internal, instance=plaque-1, generate
 224,  226,    1
*Surface, type=ELEMENT, name=_PickedSurf12, internal
__PickedSurf12_E3, E3
__PickedSurf12_E4, E4
__PickedSurf12_E2, E2
*Elset, elset=__PickedSurf14_E3, internal, instance=plaque-1
 154, 179
*Elset, elset=__PickedSurf14_E2, internal, instance=plaque-1
 220, 237, 239, 241
*Elset, elset=__PickedSurf14_E1, internal, instance=plaque-1
 221, 238
*Surface, type=ELEMENT, name=_PickedSurf14, internal
__PickedSurf14_E3, E3
__PickedSurf14_E2, E2
__PickedSurf14_E1, E1
** Constraint: Constraint-1
*Coupling, constraint name=Constraint-1, ref node=_PickedSet9, surface=_PickedSurf8
*Kinematic
** Constraint: Constraint-2
*Coupling, constraint name=Constraint-2, ref node=_PickedSet11, surface=_PickedSurf10
*Kinematic
** Constraint: Constraint-3
*Coupling, constraint name=Constraint-3, ref node=_PickedSet13, surface=_PickedSurf12
*Kinematic
** Constraint: Constraint-4
*Coupling, constraint name=Constraint-4, ref node=_PickedSet15, surface=_PickedSurf14
*Kinematic
*End Assembly
** 
** MATERIALS
** 
*Material, name=acier
*Density
 7.86e-09,
*Elastic
210000., 0.26
** ----------------------------------------------------------------
** 
** STEP: analyse_modale
** 
*Step, name=analyse_modale, nlgeom=NO, perturbation
*Frequency, eigensolver=Lanczos, sim, acoustic coupling=on, normalization=mass
, , 500., , , 
** 
** BOUNDARY CONDITIONS
** 
** Name: blocage Type: Symmetry/Antisymmetry/Encastre
*Boundary
_PickedSet16, ENCASTRE
** 
** OUTPUT REQUESTS
** 
*Restart, write, frequency=0
** 
** FIELD OUTPUT: F-Output-1
** 
*Output, field
*Node Output, variable=PRESELECT
** 
** HISTORY OUTPUT: H-Output-1
** 
*Output, history
*Energy Output, variable=ALL
*End Step
