*Heading
** Job name: vibration Model name: Model-1
** Generated by: Abaqus/CAE 2025
*Preprint, echo=NO, model=NO, history=NO, contact=NO
**
** PARTS
**
*Part, name=plaque
*Node
      1,   388.107635,   11.8923674,           0.
      2,   386.936066,   9.06394005,           0.
      3,   388.107635,   6.23551273,           0.
      4,   390.936066,   5.06394005,           0.
      5,   393.764496,   6.23551273,           0.
      6,   394.936066,   9.06394005,           0.
      7,   393.764496,   11.8923674,           0.
      8,   390.936066,     13.06394,           0.
      9,   6.23551273,   11.8923674,           0.
     10,   5.06394005,   9.06394005,           0.
     11,   6.23551273,   6.23551273,           0.
     12,   9.06394005,   5.06394005,           0.
     13,   11.8923674,   6.23551273,           0.
     14,     13.06394,   9.06394005,           0.
     15,   11.8923674,   11.8923674,           0.
     16,   9.06394005,     13.06394,           0.
     17,   11.8923674,   388.107635,           0.
     18,     13.06394,   390.936066,           0.
     19,   11.8923674,   393.764496,           0.
     20,   9.06394005,   394.936066,           0.
** ... 603 like lines cut
*Element, type=S3
 1, 132,  93, 124
 2,  21, 559,  22
 3, 569,  35, 563
 4,   7, 120,   8
 5, 115, 140, 114
 6, 577,  24,  23
 7, 134,  18, 117
 8, 192, 144, 111
 9,   6, 129,   7
10, 576, 575, 559
11, 554, 131,  37
12,  75, 560, 134
13, 587, 581,  36
14, 132, 136,  93
15, 138,  57,  56
16, 143,  76,  75
17,   9, 556,  10
18, 145,  37, 131
19, 195,  57, 138
20, 387, 344, 321
** ... 44 like lines cut
*Element, type=S4R
 65, 140, 115, 565,  55
 66, 133, 123,  12,  11
 67,  11,  10, 558, 133
 68, 121,  24, 577, 564
 69, 577,  23, 130, 578
 70, 122, 114, 125, 557
 71, 156,  51,  50, 155
 72, 150,  39,  38, 141
 73, 127,   1,   8, 118
 74, 129, 598, 120,   7
 75, 113,   2,   1, 127
 76, 101, 181, 182, 102
 77, 158,  58,  57, 195
 78, 132, 124,  30,  29
 79, 126,  17,  24, 121
 80,  77,  76, 167, 229
 81, 116,  30, 124, 137
 82, 601, 561,  26,  25
 83,  32, 119, 601,  25
 84, 116, 128,  31,  30
** ... 518 like lines cut
*Nset, nset=_PickedSet2, internal, generate
   1,  623,    1
*Elset, elset=_PickedSet2, internal, generate
   1,  602,    1
** Section: tole
*Shell Section, elset=_PickedSet2, material=acier
0.5, 5
*End Part
**  
**
** ASSEMBLY
**
*Assembly, name=Assembly
**  
*Instance, name=plaque-1, part=plaque
*End Instance
**  
*Node
      1,   9.06394005,   390.936066,           0.
*Node
      2,   9.06394005,   9.06394005,           0.
*Node
      3,   390.936066,   9.06394005,           0.
*Node
      4,   390.936066,   390.936066,           0.
*Nset, nset=_PickedSet9, internal
 1,
*Nset, nset=_PickedSet11, internal
 2,
*Nset, nset=_PickedSet13, internal
 3,
*Nset, nset=_PickedSet15, internal
 4,
*Nset, nset=_PickedSet16, internal, generate
 1,  4,  1
*Elset, elset=__PickedSurf8_E3, internal, instance=plaque-1
  2, 30
*Elset, elset=__PickedSurf8_E2, internal, instance=plaque-1
   6,  79, 584
*Elset, elset=__PickedSurf8_E4, internal, instance=plaque-1
 147, 598
*Elset, elset=__PickedSurf8_E1, internal, instance=plaque-1
 171,
*Surface, type=ELEMENT, name=_PickedSurf8, internal
__PickedSurf8_E3, E3
__PickedSurf8_E2, E2
__PickedSurf8_E4, E4
__PickedSurf8_E1, E1
*Elset, elset=__PickedSurf10_E3, internal, instance=plaque-1
  17,  66, 167
*Elset, elset=__PickedSurf10_E1, internal, instance=plaque-1
  67, 151, 581
*Elset, elset=__PickedSurf10_E2, internal, instance=plaque-1
 150,
*Elset, elset=__PickedSurf10_E4, internal, instance=plaque-1
 154,
*Surface, type=ELEMENT, name=_PickedSurf10, internal
__PickedSurf10_E3, E3
__PickedSurf10_E1, E1
__PickedSurf10_E2, E2
__PickedSurf10_E4, E4
*Elset, elset=__PickedSurf12_E3, internal, instance=plaque-1
 4, 9
*Elset, elset=__PickedSurf12_E2, internal, instance=plaque-1
  73,  75, 580, 594
*Elset, elset=__PickedSurf12_E1, internal, instance=plaque-1
 168, 579
*Surface, type=ELEMENT, name=_PickedSurf12, internal
__PickedSurf12_E3, E3
__PickedSurf12_E2, E2
__PickedSurf12_E1, E1
*Elset, elset=__PickedSurf14_E3, internal, instance=plaque-1
 78, 82, 84
*Elset, elset=__PickedSurf14_E4, internal, instance=plaque-1
  83, 100, 169
*Elset, elset=__PickedSurf14_E1, internal, instance=plaque-1
 155, 585
*Surface, type=ELEMENT, name=_PickedSurf14, internal
__PickedSurf14_E3, E3
__PickedSurf14_E4, E4
__PickedSurf14_E1, E1
** Constraint: Constraint-1
*Coupling, constraint name=Constraint-1, ref node=_PickedSet9, surface=_PickedSurf8
*Kinematic
** Constraint: Constraint-2
*Coupling, constraint name=Constraint-2, ref node=_PickedSet11, surface=_PickedSurf10
*Kinematic
** Constraint: Constraint-3
*Coupling, constraint name=Constraint-3, ref node=_PickedSet13, surface=_PickedSurf12
*Kinematic
** Constraint: Constraint-4
*Coupling, constraint name=Constraint-4, ref node=_PickedSet15, surface=_PickedSurf14
*Kinematic
*End Assembly
** 
** MATERIALS
** 
*Material, name=acier
*Density
 7.86e-09,
*Elastic
210000., 0.26
** ----------------------------------------------------------------
** 
** STEP: analyse_modale
** 
*Step, name=analyse_modale, nlgeom=NO, perturbation
*Frequency, eigensolver=Lanczos, sim, acoustic coupling=on, normalization=mass
, , 500., , , 
** 
** BOUNDARY CONDITIONS
** 
** Name: blocage Type: Symmetry/Antisymmetry/Encastre
*Boundary
_PickedSet16, ENCASTRE
** 
** OUTPUT REQUESTS
** 
*Restart, write, frequency=0
** 
** FIELD OUTPUT: F-Output-1
** 
*Output, field
*Node Output, variable=PRESELECT
** 
** HISTORY OUTPUT: H-Output-1
** 
*Output, history
*Energy Output, variable=ALL
*End Step
