*Heading
** Job name: vibration Model name: Model-1
** Generated by: Abaqus/CAE 2025
*Preprint, echo=NO, model=NO, history=NO, contact=NO
**
** PARTS
**
*Part, name=plaque
*Node
      1,   245.476273,   154.523727,           0.
      2,   244.304703,   151.695297,           0.
      3,   245.476273,   148.866867,           0.
      4,   248.304703,   147.695297,           0.
      5,   251.133133,   148.866867,           0.
      6,   252.304703,   151.695297,           0.
      7,   251.133133,   154.523727,           0.
      8,   248.304703,   155.695297,           0.
      9,   148.866867,   154.523727,           0.
     10,   147.695297,   151.695297,           0.
     11,   148.866867,   148.866867,           0.
     12,   151.695297,   147.695297,           0.
     13,   154.523727,   148.866867,           0.
     14,   155.695297,   151.695297,           0.
     15,   154.523727,   154.523727,           0.
     16,   151.695297,   155.695297,           0.
     17,   154.523727,   245.476273,           0.
     18,   155.695297,   248.304703,           0.
     19,   154.523727,   251.133133,           0.
     20,   151.695297,   252.304703,           0.
** ... 2724 like lines cut
*Element, type=S3
  1, 2330,  300,  265
  2,  207,  114,  146
  3,  211,  115,  145
  4,  705,  539,  603
  5, 2381,  434,  313
  6,  469,  316,  395
  7, 2498,  878, 2470
  8, 2372,  373,  278
  9, 2388,  374,  279
 10,  692,  769,  543
 11, 2598, 2564,  561
 12, 2425,  862,  707
 13,  514,  582,  359
 14,  707,  458,  499
 15, 2621, 2613, 1239
 16,  756,  663,  619
 17,  944,  692,  778
 18,  776, 2412,  699
 19, 2468,  619,  501
 20,  972,  787,  866
** ... 86 like lines cut
*Element, type=S4R
 107,  196,  223,  287,  258
 108,  298,  258,  331,  377
 109,  118,  157,    5,    4
 110, 2328,  165,  119,  202
 111,  156,  127,  170,  188
 112,    4,  119,  165,  118
 113, 2332,  263, 2320,  198
 114,  121,  159,   11,   10
 115,  168,  122,  228,  252
 116, 2247, 2139,   55,   54
 117,  122,  168,  121,   10
 118,  171,  220,  259,  122
 119,  134,   22,   21,  160
 120,  154,   16,   15,  113
 121,   15,   14,  124,  143
 122,  180,  124,  150,  205
 123,  341,  274,  366,  430
 124,  114,  147,    1,    8
 125,   14,  126,  150,  124
 126,   12,  120,  170,  127
** ... 2618 like lines cut
*Nset, nset=_PickedSet2, internal, generate
    1,  2744,     1
*Elset, elset=_PickedSet2, internal, generate
    1,  2744,     1
** Section: tole
*Shell Section, elset=_PickedSet2, material=acier
0.5, 5
*End Part
**  
**
** ASSEMBLY
**
*Assembly, name=Assembly
**  
*Instance, name=plaque-1, part=plaque
*End Instance
**  
*Node
      1,   151.695297,   248.304703,           0.
*Node
      2,   151.695297,   151.695297,           0.
*Node
      3,   248.304703,   151.695297,           0.
*Node
      4,   248.304703,   248.304703,           0.
*Nset, nset=_PickedSet9, internal
 1,
*Nset, nset=_PickedSet11, internal
 2,
*Nset, nset=_PickedSet13, internal
 3,
*Nset, nset=_PickedSet15, internal
 4,
*Nset, nset=_PickedSet16, internal, generate
 1,  4,  1
*Elset, elset=__PickedSurf8_E2, internal, instance=plaque-1
 119, 139, 207, 231, 235
*Elset, elset=__PickedSurf8_E3, internal, instance=plaque-1
 143, 205, 228
*Surface, type=ELEMENT, name=_PickedSurf8, internal
__PickedSurf8_E2, E2
__PickedSurf8_E3, E3
*Elset, elset=__PickedSurf10_E3, internal, instance=plaque-1
 114, 140
*Elset, elset=__PickedSurf10_E2, internal, instance=plaque-1
 120, 214, 215
*Elset, elset=__PickedSurf10_E1, internal, instance=plaque-1
 121, 222
*Elset, elset=__PickedSurf10_E4, internal, instance=plaque-1
 127,
*Surface, type=ELEMENT, name=_PickedSurf10, internal
__PickedSurf10_E3, E3
__PickedSurf10_E2, E2
__PickedSurf10_E4, E4
__PickedSurf10_E1, E1
*Elset, elset=__PickedSurf12_E3, internal, instance=plaque-1
 109, 124, 152
*Elset, elset=__PickedSurf12_E2, internal, instance=plaque-1
 206, 209, 210, 220
*Elset, elset=__PickedSurf12_E1, internal, instance=plaque-1
 212,
*Surface, type=ELEMENT, name=_PickedSurf12, internal
__PickedSurf12_E3, E3
__PickedSurf12_E2, E2
__PickedSurf12_E1, E1
*Elset, elset=__PickedSurf14_E3, internal, instance=plaque-1
 132, 147, 150
*Elset, elset=__PickedSurf14_E2, internal, instance=plaque-1
 135, 208, 227, 239, 241
*Surface, type=ELEMENT, name=_PickedSurf14, internal
__PickedSurf14_E3, E3
__PickedSurf14_E2, E2
** Constraint: Constraint-1
*Coupling, constraint name=Constraint-1, ref node=_PickedSet9, surface=_PickedSurf8
*Kinematic
** Constraint: Constraint-2
*Coupling, constraint name=Constraint-2, ref node=_PickedSet11, surface=_PickedSurf10
*Kinematic
** Constraint: Constraint-3
*Coupling, constraint name=Constraint-3, ref node=_PickedSet13, surface=_PickedSurf12
*Kinematic
** Constraint: Constraint-4
*Coupling, constraint name=Constraint-4, ref node=_PickedSet15, surface=_PickedSurf14
*Kinematic
*End Assembly
** 
** MATERIALS
** 
*Material, name=acier
*Density
 7.86e-09,
*Elastic
210000., 0.26
** ----------------------------------------------------------------
** 
** STEP: analyse_modale
** 
*Step, name=analyse_modale, nlgeom=NO, perturbation
*Frequency, eigensolver=Lanczos, sim, acoustic coupling=on, normalization=mass
, , 500., , , 
** 
** BOUNDARY CONDITIONS
** 
** Name: blocage Type: Symmetry/Antisymmetry/Encastre
*Boundary
_PickedSet16, ENCASTRE
** 
** OUTPUT REQUESTS
** 
*Restart, write, frequency=0
** 
** FIELD OUTPUT: F-Output-1
** 
*Output, field
*Node Output, variable=PRESELECT
** 
** HISTORY OUTPUT: H-Output-1
** 
*Output, history
*Energy Output, variable=ALL
*End Step
