*Heading
** Job name: vibration Model name: Model-1
** Generated by: Abaqus/CAE 2025
*Preprint, echo=NO, model=NO, history=NO, contact=NO
**
** PARTS
**
*Part, name=plaque
*Node
      1,   386.420441,   13.5795536,           0.
      2,   385.248871,   10.7511272,           0.
      3,   386.420441,   7.92269993,           0.
      4,   389.248871,   6.75112677,           0.
      5,   392.077301,   7.92269993,           0.
      6,   393.248871,   10.7511272,           0.
      7,   392.077301,   13.5795536,           0.
      8,   389.248871,   14.7511272,           0.
      9,   7.92269993,   13.5795536,           0.
     10,   6.75112677,   10.7511272,           0.
     11,   7.92269993,   7.92269993,           0.
     12,   10.7511272,   6.75112677,           0.
     13,   13.5795536,   7.92269993,           0.
     14,   14.7511272,   10.7511272,           0.
     15,   13.5795536,   13.5795536,           0.
     16,   10.7511272,   14.7511272,           0.
     17,   13.5795536,   386.420441,           0.
     18,   14.7511272,   389.248871,           0.
     19,   13.5795536,   392.077301,           0.
     20,   10.7511272,   393.248871,           0.
** ... 635 like lines cut
*Element, type=S3
 1,   7, 569, 568
 2, 566,  37,  33
 3, 604, 122, 572
 4, 574,  94,  34
 5, 140, 120, 568
 6, 577, 576,  75
 7,  22, 578, 575
 8, 583, 584,  26
 9, 121, 135, 139
10, 595, 155, 151
11, 119,  17,  24
12,  25, 139, 124
13,  12, 609, 572
14, 140, 568,  74
15, 136, 125,  37
16,  26, 584,  27
17, 577,  36,  21
18, 117, 182, 127
19, 199, 585,  54
20,   2, 136,   3
** ... 52 like lines cut
*Element, type=S4R
 73,   4, 565, 566,   5
 74, 125, 136,   2, 141
 75, 144,  11,  10, 574
 76, 115, 118,  16,  15
 77, 123, 605, 134, 119
 78, 149, 138, 132, 617
 79, 183, 151, 197,  38
 80, 115,  15, 116, 571
 81, 120, 567, 133,   8
 82,  13, 122, 573,  14
 83, 205, 102, 101, 224
 84,  19,  18, 126, 137
 85, 576, 577,  20,  19
 86, 129, 142,  17, 119
 87, 152, 156, 200, 596
 88, 114,  31, 117, 580
 89,  93, 616, 582, 581
 90, 583,  26,  25, 124
 91,  25,  32, 121, 139
 92,  32,  31, 114, 121
** ... 546 like lines cut
*Nset, nset=_PickedSet2, internal, generate
   1,  655,    1
*Elset, elset=_PickedSet2, internal, generate
   1,  638,    1
** Section: tole
*Shell Section, elset=_PickedSet2, material=acier
0.5, 5
*End Part
**  
**
** ASSEMBLY
**
*Assembly, name=Assembly
**  
*Instance, name=plaque-1, part=plaque
*End Instance
**  
*Node
      1,   10.7511272,   389.248871,           0.
*Node
      2,   10.7511272,   10.7511272,           0.
*Node
      3,   389.248871,   10.7511272,           0.
*Node
      4,   389.248871,   389.248871,           0.
*Nset, nset=_PickedSet9, internal
 1,
*Nset, nset=_PickedSet11, internal
 2,
*Nset, nset=_PickedSet13, internal
 3,
*Nset, nset=_PickedSet15, internal
 4,
*Nset, nset=_PickedSet16, internal, generate
 1,  4,  1
*Elset, elset=__PickedSurf8_E2, internal, instance=plaque-1
 11, 42
*Elset, elset=__PickedSurf8_E3, internal, instance=plaque-1
  46,  85, 159
*Elset, elset=__PickedSurf8_E1, internal, instance=plaque-1
  84, 164, 170
*Surface, type=ELEMENT, name=_PickedSurf8, internal
__PickedSurf8_E2, E2
__PickedSurf8_E3, E3
__PickedSurf8_E1, E1
*Elset, elset=__PickedSurf10_E2, internal, instance=plaque-1
  39,  75, 154, 163, 610
*Elset, elset=__PickedSurf10_E3, internal, instance=plaque-1
 76,
*Elset, elset=__PickedSurf10_E4, internal, instance=plaque-1
 82,
*Elset, elset=__PickedSurf10_E1, internal, instance=plaque-1
 158,
*Surface, type=ELEMENT, name=_PickedSurf10, internal
__PickedSurf10_E2, E2
__PickedSurf10_E3, E3
__PickedSurf10_E4, E4
__PickedSurf10_E1, E1
*Elset, elset=__PickedSurf12_E3, internal, instance=plaque-1
  20, 609
*Elset, elset=__PickedSurf12_E2, internal, instance=plaque-1
  35, 151, 161, 165, 167
*Elset, elset=__PickedSurf12_E4, internal, instance=plaque-1
 73,
*Surface, type=ELEMENT, name=_PickedSurf12, internal
__PickedSurf12_E3, E3
__PickedSurf12_E2, E2
__PickedSurf12_E4, E4
*Elset, elset=__PickedSurf14_E3, internal, instance=plaque-1
  16, 137, 178
*Elset, elset=__PickedSurf14_E2, internal, instance=plaque-1
  90, 153
*Elset, elset=__PickedSurf14_E1, internal, instance=plaque-1
  91,  92, 177
*Surface, type=ELEMENT, name=_PickedSurf14, internal
__PickedSurf14_E3, E3
__PickedSurf14_E2, E2
__PickedSurf14_E1, E1
** Constraint: Constraint-1
*Coupling, constraint name=Constraint-1, ref node=_PickedSet9, surface=_PickedSurf8
*Kinematic
** Constraint: Constraint-2
*Coupling, constraint name=Constraint-2, ref node=_PickedSet11, surface=_PickedSurf10
*Kinematic
** Constraint: Constraint-3
*Coupling, constraint name=Constraint-3, ref node=_PickedSet13, surface=_PickedSurf12
*Kinematic
** Constraint: Constraint-4
*Coupling, constraint name=Constraint-4, ref node=_PickedSet15, surface=_PickedSurf14
*Kinematic
*End Assembly
** 
** MATERIALS
** 
*Material, name=acier
*Density
 7.86e-09,
*Elastic
210000., 0.26
** ----------------------------------------------------------------
** 
** STEP: analyse_modale
** 
*Step, name=analyse_modale, nlgeom=NO, perturbation
*Frequency, eigensolver=Lanczos, sim, acoustic coupling=on, normalization=mass
, , 500., , , 
** 
** BOUNDARY CONDITIONS
** 
** Name: blocage Type: Symmetry/Antisymmetry/Encastre
*Boundary
_PickedSet16, ENCASTRE
** 
** OUTPUT REQUESTS
** 
*Restart, write, frequency=0
** 
** FIELD OUTPUT: F-Output-1
** 
*Output, field
*Node Output, variable=PRESELECT
** 
** HISTORY OUTPUT: H-Output-1
** 
*Output, history
*Energy Output, variable=ALL
*End Step
