*Heading
** Job name: vibration Model name: Model-1
** Generated by: Abaqus/CAE 2025
*Preprint, echo=NO, model=NO, history=NO, contact=NO
**
** PARTS
**
*Part, name=plaque
*Node
      1,   341.851105,   58.1489067,           0.
      2,   340.679535,   55.3204803,           0.
      3,   341.851105,   52.4920502,           0.
      4,   344.679535,   51.3204803,           0.
      5,   347.507935,   52.4920502,           0.
      6,   348.679535,   55.3204803,           0.
      7,   347.507935,   58.1489067,           0.
      8,   344.679535,   59.3204803,           0.
      9,   52.4920502,   58.1489067,           0.
     10,   51.3204803,   55.3204803,           0.
     11,   52.4920502,   52.4920502,           0.
     12,   55.3204803,   51.3204803,           0.
     13,   58.1489067,   52.4920502,           0.
     14,   59.3204803,   55.3204803,           0.
     15,   58.1489067,   58.1489067,           0.
     16,   55.3204803,   59.3204803,           0.
     17,   58.1489067,   341.851105,           0.
     18,   59.3204803,   344.679535,           0.
     19,   58.1489067,   347.507935,           0.
     20,   55.3204803,   348.679535,           0.
** ... 1679 like lines cut
*Element, type=S3
 1,  394,  419,  451
 2, 1516,  250,  167
 3,  178, 1540,  208
 4,  375,  237,  305
 5,  302,  276,  236
 6, 1420,  195,  254
 7,  116,  202,  143
 8,  269,  245,  224
 9,  236,  186,  217
10, 1533,  279,  280
11,  187,  277,  222
12,  393,  336,  364
13,  288,  263,  205
14,  330,  249,  227
15,  336,  310,  248
16, 1567,  475,  375
17,  429,  392,  360
18,  501,  429,  408
19,  446,  356,  400
20,  482,  414,  435
** ... 42 like lines cut
*Element, type=S4R
  63, 1521,  229,  331,  243
  64,  191,  118, 1489,  162
  65,  135, 1489,    5,    4
  66,    3, 1490,  136,    4
  67,  119,    3,    2,  154
  68,  161,  124,  193, 1507
  69,  125,  189, 1494,   11
  70,  193,  158,  219,  275
  71,  126, 1493,   10,    9
  72,  169,   16,  117, 1491
  73,  116,   23,  137,  172
  74,  116,  143,   24,   23
  75,  117,   16,   15,  147
  76,  115,   17,   24,  143
  77,    1,  173,  121,    2
  78,  142,    8,  114,  170
  79,  127,  147,   15,   14
  80,  184, 1537,  256,  206
  81,  338,  355,  323,  273
  82,  127,   14,  128,  159
** ... 1595 like lines cut
*Nset, nset=_PickedSet2, internal, generate
    1,  1699,     1
*Elset, elset=_PickedSet2, internal, generate
    1,  1677,     1
** Section: tole
*Shell Section, elset=_PickedSet2, material=acier
0.5, 5
*End Part
**  
**
** ASSEMBLY
**
*Assembly, name=Assembly
**  
*Instance, name=plaque-1, part=plaque
*End Instance
**  
*Node
      1,   55.3204803,   344.679535,           0.
*Node
      2,   55.3204803,   55.3204803,           0.
*Node
      3,   344.679535,   55.3204803,           0.
*Node
      4,   344.679535,   344.679535,           0.
*Nset, nset=_PickedSet9, internal
 1,
*Nset, nset=_PickedSet11, internal
 2,
*Nset, nset=_PickedSet13, internal
 3,
*Nset, nset=_PickedSet15, internal
 4,
*Nset, nset=_PickedSet16, internal, generate
 1,  4,  1
*Elset, elset=__PickedSurf8_E3, internal, instance=plaque-1
 74, 92
*Elset, elset=__PickedSurf8_E2, internal, instance=plaque-1
  76, 167, 173, 175
*Elset, elset=__PickedSurf8_E4, internal, instance=plaque-1
 142, 190
*Surface, type=ELEMENT, name=_PickedSurf8, internal
__PickedSurf8_E3, E3
__PickedSurf8_E2, E2
__PickedSurf8_E4, E4
*Elset, elset=__PickedSurf10_E3, internal, instance=plaque-1
  71,  79, 154
*Elset, elset=__PickedSurf10_E2, internal, instance=plaque-1
  75, 118, 176, 177, 179
*Surface, type=ELEMENT, name=_PickedSurf10, internal
__PickedSurf10_E3, E3
__PickedSurf10_E2, E2
*Elset, elset=__PickedSurf12_E3, internal, instance=plaque-1
 65, 98
*Elset, elset=__PickedSurf12_E4, internal, instance=plaque-1
  66,  77, 104
*Elset, elset=__PickedSurf12_E2, internal, instance=plaque-1
  67, 165, 170
*Surface, type=ELEMENT, name=_PickedSurf12, internal
__PickedSurf12_E3, E3
__PickedSurf12_E4, E4
__PickedSurf12_E2, E2
*Elset, elset=__PickedSurf14_E2, internal, instance=plaque-1
  88, 103, 185, 188
*Elset, elset=__PickedSurf14_E3, internal, instance=plaque-1
  89, 102
*Elset, elset=__PickedSurf14_E4, internal, instance=plaque-1
 128, 186
*Surface, type=ELEMENT, name=_PickedSurf14, internal
__PickedSurf14_E2, E2
__PickedSurf14_E3, E3
__PickedSurf14_E4, E4
** Constraint: Constraint-1
*Coupling, constraint name=Constraint-1, ref node=_PickedSet9, surface=_PickedSurf8
*Kinematic
** Constraint: Constraint-2
*Coupling, constraint name=Constraint-2, ref node=_PickedSet11, surface=_PickedSurf10
*Kinematic
** Constraint: Constraint-3
*Coupling, constraint name=Constraint-3, ref node=_PickedSet13, surface=_PickedSurf12
*Kinematic
** Constraint: Constraint-4
*Coupling, constraint name=Constraint-4, ref node=_PickedSet15, surface=_PickedSurf14
*Kinematic
*End Assembly
** 
** MATERIALS
** 
*Material, name=acier
*Density
 7.86e-09,
*Elastic
210000., 0.26
** ----------------------------------------------------------------
** 
** STEP: analyse_modale
** 
*Step, name=analyse_modale, nlgeom=NO, perturbation
*Frequency, eigensolver=Lanczos, sim, acoustic coupling=on, normalization=mass
, , 500., , , 
** 
** BOUNDARY CONDITIONS
** 
** Name: blocage Type: Symmetry/Antisymmetry/Encastre
*Boundary
_PickedSet16, ENCASTRE
** 
** OUTPUT REQUESTS
** 
*Restart, write, frequency=0
** 
** FIELD OUTPUT: F-Output-1
** 
*Output, field
*Node Output, variable=PRESELECT
** 
** HISTORY OUTPUT: H-Output-1
** 
*Output, history
*Energy Output, variable=ALL
*End Step
