*Heading
** Job name: vibration Model name: Model-1
** Generated by: Abaqus/CAE 2025
*Preprint, echo=NO, model=NO, history=NO, contact=NO
**
** PARTS
**
*Part, name=plaque
*Node
      1,   282.933563,   117.066437,           0.
      2,   281.761993,   114.238014,           0.
      3,   282.933563,   111.409584,           0.
      4,   285.761993,   110.238014,           0.
      5,   288.590424,   111.409584,           0.
      6,   289.761993,   114.238014,           0.
      7,   288.590424,   117.066437,           0.
      8,   285.761993,   118.238014,           0.
      9,   111.409584,   117.066437,           0.
     10,   110.238014,   114.238014,           0.
     11,   111.409584,   111.409584,           0.
     12,   114.238014,   110.238014,           0.
     13,   117.066437,   111.409584,           0.
     14,   118.238014,   114.238014,           0.
     15,   117.066437,   117.066437,           0.
     16,   114.238014,   118.238014,           0.
     17,   117.066437,   282.933563,           0.
     18,   118.238014,   285.761993,           0.
     19,   117.066437,   288.590424,           0.
     20,   114.238014,   289.761993,           0.
** ... 3567 like lines cut
*Element, type=S3
  1,  422,  341, 3083
  2,  222,  132,  159
  3, 3075,  195,  235
  4,  165,   19,  139
  5,  204,  302,  236
  6,  240,  177,  223
  7,  267,  194,  224
  8,  507, 3150,  387
  9, 3107, 3069,  285
 10,  191,  284,  220
 11,  368,  214,  249
 12,  193,  291,  226
 13,  355,  345,  304
 14, 3077,  359,  314
 15,  316,  368,  282
 16,  566,  507,  443
 17,  524,  419,  390
 18, 3157,  670,  544
 19, 3133,  491,  559
 20, 3125,  493,  375
** ... 104 like lines cut
*Element, type=S4R
 125,  261,  202,  226,  291
 126,  163,  226,  202,  118
 127,  136,  163,    5,    4
 128,  119,  167,    3,    2
 129,  166,  262,  203,  124
 130,  166,  124,  125,  194
 131, 2931, 3022, 2983, 3005
 132,   10,  126,  160,  125
 133,  174,  142,  117,  186
 134,  138,  176,   23,   22
 135,  150,   24,  116, 3053
 136,  214,  174,  186,  249
 137,  145, 3068,  209, 3073
 138,  274,  210, 3065, 3085
 139,    8,  114,  175,  144
 140,  227,  161,  184,  305
 141,  120,  154,  119,    2
 142,  128,  161,   14,   13
 143,  124,  162,   12,   11
 144,    6,  118,  157,  121
** ... 3452 like lines cut
*Nset, nset=_PickedSet2, internal, generate
    1,  3587,     1
*Elset, elset=_PickedSet2, internal, generate
    1,  3596,     1
** Section: tole
*Shell Section, elset=_PickedSet2, material=acier
0.5, 5
*End Part
**  
**
** ASSEMBLY
**
*Assembly, name=Assembly
**  
*Instance, name=plaque-1, part=plaque
*End Instance
**  
*Node
      1,   114.238014,   285.761993,           0.
*Node
      2,   114.238014,   114.238014,           0.
*Node
      3,   285.761993,   114.238014,           0.
*Node
      4,   285.761993,   285.761993,           0.
*Nset, nset=_PickedSet9, internal
 1,
*Nset, nset=_PickedSet11, internal
 2,
*Nset, nset=_PickedSet13, internal
 3,
*Nset, nset=_PickedSet15, internal
 4,
*Nset, nset=_PickedSet16, internal, generate
 1,  4,  1
*Elset, elset=__PickedSurf8_E3, internal, instance=plaque-1
 134, 146, 153
*Elset, elset=__PickedSurf8_E2, internal, instance=plaque-1
 156, 226, 237, 238, 252
*Surface, type=ELEMENT, name=_PickedSurf8, internal
__PickedSurf8_E3, E3
__PickedSurf8_E2, E2
*Elset, elset=__PickedSurf10_E3, internal, instance=plaque-1
 142, 143, 213
*Elset, elset=__PickedSurf10_E4, internal, instance=plaque-1
 210,
*Elset, elset=__PickedSurf10_E1, internal, instance=plaque-1
 229, 239
*Elset, elset=__PickedSurf10_E2, internal, instance=plaque-1
 230, 243
*Surface, type=ELEMENT, name=_PickedSurf10, internal
__PickedSurf10_E3, E3
__PickedSurf10_E4, E4
__PickedSurf10_E2, E2
__PickedSurf10_E1, E1
*Elset, elset=__PickedSurf12_E3, internal, instance=plaque-1
 127, 128
*Elset, elset=__PickedSurf12_E1, internal, instance=plaque-1
 165, 234
*Elset, elset=__PickedSurf12_E2, internal, instance=plaque-1
 224, 231, 232, 250
*Surface, type=ELEMENT, name=_PickedSurf12, internal
__PickedSurf12_E3, E3
__PickedSurf12_E1, E1
__PickedSurf12_E2, E2
*Elset, elset=__PickedSurf14_E3, internal, instance=plaque-1
 148, 157, 161
*Elset, elset=__PickedSurf14_E2, internal, instance=plaque-1
 163, 245, 248
*Elset, elset=__PickedSurf14_E4, internal, instance=plaque-1
 202,
*Elset, elset=__PickedSurf14_E1, internal, instance=plaque-1
 222,
*Surface, type=ELEMENT, name=_PickedSurf14, internal
__PickedSurf14_E3, E3
__PickedSurf14_E2, E2
__PickedSurf14_E4, E4
__PickedSurf14_E1, E1
** Constraint: Constraint-1
*Coupling, constraint name=Constraint-1, ref node=_PickedSet9, surface=_PickedSurf8
*Kinematic
** Constraint: Constraint-2
*Coupling, constraint name=Constraint-2, ref node=_PickedSet11, surface=_PickedSurf10
*Kinematic
** Constraint: Constraint-3
*Coupling, constraint name=Constraint-3, ref node=_PickedSet13, surface=_PickedSurf12
*Kinematic
** Constraint: Constraint-4
*Coupling, constraint name=Constraint-4, ref node=_PickedSet15, surface=_PickedSurf14
*Kinematic
*End Assembly
** 
** MATERIALS
** 
*Material, name=acier
*Density
 7.86e-09,
*Elastic
210000., 0.26
** ----------------------------------------------------------------
** 
** STEP: analyse_modale
** 
*Step, name=analyse_modale, nlgeom=NO, perturbation
*Frequency, eigensolver=Lanczos, sim, acoustic coupling=on, normalization=mass
, , 500., , , 
** 
** BOUNDARY CONDITIONS
** 
** Name: blocage Type: Symmetry/Antisymmetry/Encastre
*Boundary
_PickedSet16, ENCASTRE
** 
** OUTPUT REQUESTS
** 
*Restart, write, frequency=0
** 
** FIELD OUTPUT: F-Output-1
** 
*Output, field
*Node Output, variable=PRESELECT
** 
** HISTORY OUTPUT: H-Output-1
** 
*Output, history
*Energy Output, variable=ALL
*End Step
