*Heading
** Job name: vibration Model name: Model-1
** Generated by: Abaqus/CAE 2025
*Preprint, echo=NO, model=NO, history=NO, contact=NO
**
** PARTS
**
*Part, name=plaque
*Node
      1,   247.833633,   152.166367,           0.
      2,   246.662064,   149.337936,           0.
      3,   247.833633,   146.509506,           0.
      4,   250.662064,   145.337936,           0.
      5,   253.490494,   146.509506,           0.
      6,   254.662064,   149.337936,           0.
      7,   253.490494,   152.166367,           0.
      8,   250.662064,   153.337936,           0.
      9,   146.509506,   152.166367,           0.
     10,   145.337936,   149.337936,           0.
     11,   146.509506,   146.509506,           0.
     12,   149.337936,   145.337936,           0.
     13,   152.166367,   146.509506,           0.
     14,   153.337936,   149.337936,           0.
     15,   152.166367,   152.166367,           0.
     16,   149.337936,   153.337936,           0.
     17,   152.166367,   247.833633,           0.
     18,   153.337936,   250.662064,           0.
     19,   152.166367,   253.490494,           0.
     20,   149.337936,   254.662064,           0.
** ... 2797 like lines cut
*Element, type=S3
  1, 2073, 2072, 2074
  2,  203,  113,  145
  3,  204,  116,  144
  4,  307,  290,  251
  5,  521,  416,  396
  6, 2460,  375,  275
  7, 2465,  377,  276
  8,  511,  578,  361
  9,  935,  933,  761
 10,  628,  710,  474
 11, 1042,  843,  934
 12, 1150,  869,  950
 13,  666,  867,  780
 14,  669,  868,  781
 15, 2635,  846,  761
 16, 2636, 1021,  834
 17, 2685, 2703,  831
 18,  920,  823,  747
 19, 1030, 1228, 1018
 20, 1256, 1149, 1053
** ... 80 like lines cut
*Element, type=S4R
 101,  171,  218,  257, 2401
 102,  380,  297, 2422,  537
 103,  255,  333, 2422,  297
 104,  156,    5,    4,  118
 105,    4,  119,  162,  118
 106,  207,  151, 2391, 2398
 107,  188,  121,  150,  250
 108,  134,   12,   11,  158
 109,  121,  155,    3,    2
 110,  113,  146,    1,    8
 111,  177,  123,  149,  202
 112,   31,  123,  142,  115
 113,  124,  149,   30,   29
 114,   29,  125,  147,  124
 115, 2393,  147,  125,  185
 116,  166,   28,   27,  157
 117,  198,  165,  224,  253
 118,   20,  126,  165,  127
 119,  608,  671,  511,  452
 120,  159,   21,   20,  127
** ... 2694 like lines cut
*Nset, nset=_PickedSet2, internal, generate
    1,  2817,     1
*Elset, elset=_PickedSet2, internal, generate
    1,  2814,     1
** Section: tole
*Shell Section, elset=_PickedSet2, material=acier
0.5, 5
*End Part
**  
**
** ASSEMBLY
**
*Assembly, name=Assembly
**  
*Instance, name=plaque-1, part=plaque
*End Instance
**  
*Node
      1,   149.337936,   250.662064,           0.
*Node
      2,   149.337936,   149.337936,           0.
*Node
      3,   250.662064,   149.337936,           0.
*Node
      4,   250.662064,   250.662064,           0.
*Nset, nset=_PickedSet9, internal
 1,
*Nset, nset=_PickedSet11, internal
 2,
*Nset, nset=_PickedSet13, internal
 3,
*Nset, nset=_PickedSet15, internal
 4,
*Nset, nset=_PickedSet16, internal, generate
 1,  4,  1
*Elset, elset=__PickedSurf8_E2, internal, instance=plaque-1
 120, 206, 220, 232
*Elset, elset=__PickedSurf8_E3, internal, instance=plaque-1
 140, 204, 218
*Elset, elset=__PickedSurf8_E4, internal, instance=plaque-1
 199,
*Surface, type=ELEMENT, name=_PickedSurf8, internal
__PickedSurf8_E2, E2
__PickedSurf8_E3, E3
__PickedSurf8_E4, E4
*Elset, elset=__PickedSurf10_E2, internal, instance=plaque-1
 108, 125, 224, 225, 227
*Elset, elset=__PickedSurf10_E1, internal, instance=plaque-1
 126,
*Elset, elset=__PickedSurf10_E3, internal, instance=plaque-1
 134, 194
*Surface, type=ELEMENT, name=_PickedSurf10, internal
__PickedSurf10_E2, E2
__PickedSurf10_E1, E1
__PickedSurf10_E3, E3
*Elset, elset=__PickedSurf12_E2, internal, instance=plaque-1
 104, 203, 207, 208, 212
*Elset, elset=__PickedSurf12_E3, internal, instance=plaque-1
 109, 110, 132
*Surface, type=ELEMENT, name=_PickedSurf12, internal
__PickedSurf12_E2, E2
__PickedSurf12_E3, E3
*Elset, elset=__PickedSurf14_E3, internal, instance=plaque-1
 113, 129, 143
*Elset, elset=__PickedSurf14_E2, internal, instance=plaque-1
 116, 205, 217, 236, 238
*Surface, type=ELEMENT, name=_PickedSurf14, internal
__PickedSurf14_E3, E3
__PickedSurf14_E2, E2
** Constraint: Constraint-1
*Coupling, constraint name=Constraint-1, ref node=_PickedSet9, surface=_PickedSurf8
*Kinematic
** Constraint: Constraint-2
*Coupling, constraint name=Constraint-2, ref node=_PickedSet11, surface=_PickedSurf10
*Kinematic
** Constraint: Constraint-3
*Coupling, constraint name=Constraint-3, ref node=_PickedSet13, surface=_PickedSurf12
*Kinematic
** Constraint: Constraint-4
*Coupling, constraint name=Constraint-4, ref node=_PickedSet15, surface=_PickedSurf14
*Kinematic
*End Assembly
** 
** MATERIALS
** 
*Material, name=acier
*Density
 7.86e-09,
*Elastic
210000., 0.26
** ----------------------------------------------------------------
** 
** STEP: analyse_modale
** 
*Step, name=analyse_modale, nlgeom=NO, perturbation
*Frequency, eigensolver=Lanczos, sim, acoustic coupling=on, normalization=mass
, , 500., , , 
** 
** BOUNDARY CONDITIONS
** 
** Name: blocage Type: Symmetry/Antisymmetry/Encastre
*Boundary
_PickedSet16, ENCASTRE
** 
** OUTPUT REQUESTS
** 
*Restart, write, frequency=0
** 
** FIELD OUTPUT: F-Output-1
** 
*Output, field
*Node Output, variable=PRESELECT
** 
** HISTORY OUTPUT: H-Output-1
** 
*Output, history
*Energy Output, variable=ALL
*End Step
