*Heading
** Job name: vibration Model name: Model-1
** Generated by: Abaqus/CAE 2025
*Preprint, echo=NO, model=NO, history=NO, contact=NO
**
** PARTS
**
*Part, name=plaque
*Node
      1,   223.384262,   176.615738,           0.
      2,   222.212677,   173.787323,           0.
      3,   223.384262,   170.958893,           0.
      4,   226.212677,   169.787323,           0.
      5,   229.041107,   170.958893,           0.
      6,   230.212677,   173.787323,           0.
      7,   229.041107,   176.615738,           0.
      8,   226.212677,   177.787323,           0.
      9,   170.958893,   176.615738,           0.
     10,   169.787323,   173.787323,           0.
     11,   170.958893,   170.958893,           0.
     12,   173.787323,   169.787323,           0.
     13,   176.615738,   170.958893,           0.
     14,   177.787323,   173.787323,           0.
     15,   176.615738,   176.615738,           0.
     16,   173.787323,   177.787323,           0.
     17,   176.615738,   223.384262,           0.
     18,   177.787323,   226.212677,           0.
     19,   176.615738,   229.041107,           0.
     20,   173.787323,   230.212677,           0.
** ... 1888 like lines cut
*Element, type=S3
 1, 1674,  248,  171
 2,  200,  141,  157
 3,  128,   26,   25
 4,  128,  139,   26
 5,  197,  126,  165
 6, 1673,  253,  164
 7,  276,  196,  253
 8,  240,  291,  161
 9,  294,  209,  237
10, 1705,  611,  496
11, 1802,  722,  643
12,  700,  534,  608
13,  820,  557,  625
14,  558,  467,  404
15,  469, 1815,  541
16,  714,  549,  640
17,  823,  628,  710
18,  759, 1791,  709
19, 1058, 1021,  989
20,  725,  570,  721
** ... 52 like lines cut
*Element, type=S4R
  73,  326,  382,  270,  241
  74,  202,  117,  168,  246
  75,  118,  168,    5,    4
  76,   13,  126,  152,  125
  77,  393,  287,  340,  460
  78,  120,  170,   11,   10
  79, 1474, 1675, 1579, 1583
  80,   10,  121,  163,  120
  81,    9,   16,  141,  174
  82,  122,   23,   22,  164
  83,   16,  113,  157,  141
  84,   15,   14,  123,  146
  85,  148,  189,  123,   14
  86,  551,  641,  473,  416
  87,  114,  153,    1,    8
  88,  125,  148,   14,   13
  89,  165,   12,  119, 1672
  90,  201,  129,  149,  233
  91,  238,  158,  181,  263
  92,    2,  124,  149,  129
** ... 1799 like lines cut
*Nset, nset=_PickedSet2, internal, generate
    1,  1908,     1
*Elset, elset=_PickedSet2, internal, generate
    1,  1891,     1
** Section: tole
*Shell Section, elset=_PickedSet2, material=acier
0.5, 5
*End Part
**  
**
** ASSEMBLY
**
*Assembly, name=Assembly
**  
*Instance, name=plaque-1, part=plaque
*End Instance
**  
*Node
      1,   173.787323,   226.212677,           0.
*Node
      2,   173.787323,   173.787323,           0.
*Node
      3,   226.212677,   173.787323,           0.
*Node
      4,   226.212677,   226.212677,           0.
*Nset, nset=_PickedSet9, internal
 1,
*Nset, nset=_PickedSet11, internal
 2,
*Nset, nset=_PickedSet13, internal
 3,
*Nset, nset=_PickedSet15, internal
 4,
*Nset, nset=_PickedSet16, internal, generate
 1,  4,  1
*Elset, elset=__PickedSurf8_E2, internal, instance=plaque-1
  82, 203, 204, 208
*Elset, elset=__PickedSurf8_E3, internal, instance=plaque-1
 102,
*Elset, elset=__PickedSurf8_E4, internal, instance=plaque-1
 170,
*Elset, elset=__PickedSurf8_E1, internal, instance=plaque-1
 180, 206
*Surface, type=ELEMENT, name=_PickedSurf8, internal
__PickedSurf8_E2, E2
__PickedSurf8_E3, E3
__PickedSurf8_E4, E4
__PickedSurf8_E1, E1
*Elset, elset=__PickedSurf10_E3, internal, instance=plaque-1
 78, 88
*Elset, elset=__PickedSurf10_E1, internal, instance=plaque-1
 81, 84
*Elset, elset=__PickedSurf10_E2, internal, instance=plaque-1
 178, 186, 187, 194
*Surface, type=ELEMENT, name=_PickedSurf10, internal
__PickedSurf10_E3, E3
__PickedSurf10_E1, E1
__PickedSurf10_E2, E2
*Elset, elset=__PickedSurf12_E3, internal, instance=plaque-1
  75,  87, 110, 195
*Elset, elset=__PickedSurf12_E2, internal, instance=plaque-1
 179, 183, 184, 192
*Surface, type=ELEMENT, name=_PickedSurf12, internal
__PickedSurf12_E3, E3
__PickedSurf12_E2, E2
*Elset, elset=__PickedSurf14_E2, internal, instance=plaque-1
   3, 181, 201
*Elset, elset=__PickedSurf14_E3, internal, instance=plaque-1
  95, 104, 131
*Elset, elset=__PickedSurf14_E4, internal, instance=plaque-1
 152,
*Elset, elset=__PickedSurf14_E1, internal, instance=plaque-1
 182,
*Surface, type=ELEMENT, name=_PickedSurf14, internal
__PickedSurf14_E2, E2
__PickedSurf14_E3, E3
__PickedSurf14_E4, E4
__PickedSurf14_E1, E1
** Constraint: Constraint-1
*Coupling, constraint name=Constraint-1, ref node=_PickedSet9, surface=_PickedSurf8
*Kinematic
** Constraint: Constraint-2
*Coupling, constraint name=Constraint-2, ref node=_PickedSet11, surface=_PickedSurf10
*Kinematic
** Constraint: Constraint-3
*Coupling, constraint name=Constraint-3, ref node=_PickedSet13, surface=_PickedSurf12
*Kinematic
** Constraint: Constraint-4
*Coupling, constraint name=Constraint-4, ref node=_PickedSet15, surface=_PickedSurf14
*Kinematic
*End Assembly
** 
** MATERIALS
** 
*Material, name=acier
*Density
 7.86e-09,
*Elastic
210000., 0.26
** ----------------------------------------------------------------
** 
** STEP: analyse_modale
** 
*Step, name=analyse_modale, nlgeom=NO, perturbation
*Frequency, eigensolver=Lanczos, sim, acoustic coupling=on, normalization=mass
, , 500., , , 
** 
** BOUNDARY CONDITIONS
** 
** Name: blocage Type: Symmetry/Antisymmetry/Encastre
*Boundary
_PickedSet16, ENCASTRE
** 
** OUTPUT REQUESTS
** 
*Restart, write, frequency=0
** 
** FIELD OUTPUT: F-Output-1
** 
*Output, field
*Node Output, variable=PRESELECT
** 
** HISTORY OUTPUT: H-Output-1
** 
*Output, history
*Energy Output, variable=ALL
*End Step
