*Heading
** Job name: vibration Model name: Model-1
** Generated by: Abaqus/CAE 2025
*Preprint, echo=NO, model=NO, history=NO, contact=NO
**
** PARTS
**
*Part, name=plaque
*Node
      1,   349.868622,   50.1313667,           0.
      2,   348.697052,   47.3029404,           0.
      3,   349.868622,    44.474514,           0.
      4,   352.697052,   43.3029404,           0.
      5,   355.525482,    44.474514,           0.
      6,   356.697052,   47.3029404,           0.
      7,   355.525482,   50.1313667,           0.
      8,   352.697052,   51.3029404,           0.
      9,    44.474514,   50.1313667,           0.
     10,   43.3029404,   47.3029404,           0.
     11,    44.474514,    44.474514,           0.
     12,   47.3029404,   43.3029404,           0.
     13,   50.1313667,    44.474514,           0.
     14,   51.3029404,   47.3029404,           0.
     15,   50.1313667,   50.1313667,           0.
     16,   47.3029404,   51.3029404,           0.
     17,   50.1313667,   349.868622,           0.
     18,   51.3029404,   352.697052,           0.
     19,   50.1313667,   355.525482,           0.
     20,   47.3029404,   356.697052,           0.
** ... 1293 like lines cut
*Element, type=S3
 1,  217,  118,  157
 2,  133,    5,    4
 3, 1151, 1150,  196
 4, 1145,  265,  213
 5,  114,  210,  173
 6,  262,  259,  237
 7, 1153,  190,  154
 8,  221,  155,  168
 9,  366,  349,  328
10,  447,  414,  413
11,  245,  226,  192
12, 1147,  233,  198
13, 1159,  272,  244
14,  307,  268,  282
15,  546,  491,  512
16,  412,  321,  392
17,  464,  430,  449
18, 1266,  474,  479
19, 1253, 1254,  466
20, 1016, 1012,  593
** ... 48 like lines cut
*Element, type=S4R
  69,  241,  224,  171,  188
  70,  163,  116,  133, 1121
  71,  166,    3,  117, 1123
  72,  117,    3,    2, 1122
  73, 1169,  220,  193,  276
  74,  159, 1129,   11,   10
  75,  123,    9,  115,  198
  76,  115,    9,   16,  176
  77,  155,  237,  187,  137
  78,   23, 1132,  140,   24
  79,  124,  169,   15,   14
  80, 1158,  300, 1174,  254
  81,  278,  265,  258, 1203
  82,  142,    8,    7, 1120
  83,  125,   14,   13,  160
  84, 1164,  312,  424,  329
  85, 1199,  205, 1163,  305
  86,  124,   14,  125, 1126
  87,   12, 1127,  126,   13
  88,  118,    6,  116,  157
** ... 1206 like lines cut
*Nset, nset=_PickedSet2, internal, generate
    1,  1313,     1
*Elset, elset=_PickedSet2, internal, generate
    1,  1294,     1
** Section: tole
*Shell Section, elset=_PickedSet2, material=acier
0.5, 5
*End Part
**  
**
** ASSEMBLY
**
*Assembly, name=Assembly
**  
*Instance, name=plaque-1, part=plaque
*End Instance
**  
*Node
      1,   47.3029404,   352.697052,           0.
*Node
      2,   47.3029404,   47.3029404,           0.
*Node
      3,   352.697052,   47.3029404,           0.
*Node
      4,   352.697052,   352.697052,           0.
*Nset, nset=_PickedSet9, internal
 1,
*Nset, nset=_PickedSet11, internal
 2,
*Nset, nset=_PickedSet13, internal
 3,
*Nset, nset=_PickedSet15, internal
 4,
*Nset, nset=_PickedSet16, internal, generate
 1,  4,  1
*Elset, elset=__PickedSurf8_E4, internal, instance=plaque-1
  78,  99, 102, 179, 196
*Elset, elset=__PickedSurf8_E2, internal, instance=plaque-1
  97, 178, 198
*Surface, type=ELEMENT, name=_PickedSurf8, internal
__PickedSurf8_E4, E4
__PickedSurf8_E2, E2
*Elset, elset=__PickedSurf10_E3, internal, instance=plaque-1
 74, 79
*Elset, elset=__PickedSurf10_E2, internal, instance=plaque-1
  76,  83, 180
*Elset, elset=__PickedSurf10_E4, internal, instance=plaque-1
  87, 160, 181
*Surface, type=ELEMENT, name=_PickedSurf10, internal
__PickedSurf10_E3, E3
__PickedSurf10_E2, E2
__PickedSurf10_E4, E4
*Elset, elset=__PickedSurf12_E2, internal, instance=plaque-1
   2,  72,  82, 170
*Elset, elset=__PickedSurf12_E4, internal, instance=plaque-1
 109, 176, 222
*Elset, elset=__PickedSurf12_E1, internal, instance=plaque-1
 174,
*Surface, type=ELEMENT, name=_PickedSurf12, internal
__PickedSurf12_E2, E2
__PickedSurf12_E4, E4
__PickedSurf12_E1, E1
*Elset, elset=__PickedSurf14_E3, internal, instance=plaque-1
  93, 106, 107
*Elset, elset=__PickedSurf14_E2, internal, instance=plaque-1
 104, 187, 190, 192
*Elset, elset=__PickedSurf14_E4, internal, instance=plaque-1
 148,
*Surface, type=ELEMENT, name=_PickedSurf14, internal
__PickedSurf14_E3, E3
__PickedSurf14_E2, E2
__PickedSurf14_E4, E4
** Constraint: Constraint-1
*Coupling, constraint name=Constraint-1, ref node=_PickedSet9, surface=_PickedSurf8
*Kinematic
** Constraint: Constraint-2
*Coupling, constraint name=Constraint-2, ref node=_PickedSet11, surface=_PickedSurf10
*Kinematic
** Constraint: Constraint-3
*Coupling, constraint name=Constraint-3, ref node=_PickedSet13, surface=_PickedSurf12
*Kinematic
** Constraint: Constraint-4
*Coupling, constraint name=Constraint-4, ref node=_PickedSet15, surface=_PickedSurf14
*Kinematic
*End Assembly
** 
** MATERIALS
** 
*Material, name=acier
*Density
 7.86e-09,
*Elastic
210000., 0.26
** ----------------------------------------------------------------
** 
** STEP: analyse_modale
** 
*Step, name=analyse_modale, nlgeom=NO, perturbation
*Frequency, eigensolver=Lanczos, sim, acoustic coupling=on, normalization=mass
, , 500., , , 
** 
** BOUNDARY CONDITIONS
** 
** Name: blocage Type: Symmetry/Antisymmetry/Encastre
*Boundary
_PickedSet16, ENCASTRE
** 
** OUTPUT REQUESTS
** 
*Restart, write, frequency=0
** 
** FIELD OUTPUT: F-Output-1
** 
*Output, field
*Node Output, variable=PRESELECT
** 
** HISTORY OUTPUT: H-Output-1
** 
*Output, history
*Energy Output, variable=ALL
*End Step
