*Heading
** Job name: vibration Model name: Model-1
** Generated by: Abaqus/CAE 2025
*Preprint, echo=NO, model=NO, history=NO, contact=NO
**
** PARTS
**
*Part, name=plaque
*Node
      1,   230.507645,   169.492355,           0.
      2,   229.336075,   166.663925,           0.
      3,   230.507645,   163.835495,           0.
      4,   233.336075,   162.663925,           0.
      5,   236.164505,   163.835495,           0.
      6,   237.336075,   166.663925,           0.
      7,   236.164505,   169.492355,           0.
      8,   233.336075,   170.663925,           0.
      9,   163.835495,   169.492355,           0.
     10,   162.663925,   166.663925,           0.
     11,   163.835495,   163.835495,           0.
     12,   166.663925,   162.663925,           0.
     13,   169.492355,   163.835495,           0.
     14,   170.663925,   166.663925,           0.
     15,   169.492355,   169.492355,           0.
     16,   166.663925,   170.663925,           0.
     17,   169.492355,   230.507645,           0.
     18,   170.663925,   233.336075,           0.
     19,   169.492355,   236.164505,           0.
     20,   166.663925,   237.336075,           0.
** ... 2141 like lines cut
*Element, type=S3
 1, 1911,  202,  235
 2,  263,  184,  216
 3,  260,  191,  243
 4,  269,  197,  229
 5, 1930,  294,  263
 6,  397,  371,  294
 7, 1941,  630,  471
 8,  312,  552,  455
 9, 1978,  653,  511
10,  492,  514,  356
11,  529,  469,  388
12, 1958,  545,  560
13,  846, 2047,  667
14, 1158, 1994, 1074
15,  593,  842,  672
16,  782,  609,  772
17,  780,  768,  599
18, 1037,  758,  843
19,  851,  759,  679
20, 2095,  874, 1050
** ... 44 like lines cut
*Element, type=S4R
  65,  117,  197, 1889,  173
  66,  268,  472,  304,  269
  67,  118,  160,    5,    4
  68,  268,  201,  236,  356
  69,   13,  125,  148,  124
  70,  119,  162,   11,   10
  71,  200,  234, 1906,  267
  72, 1656, 1881, 1760, 1814
  73,   10,  120,  169,  119
  74,  194,  140,   16,  158
  75,   23,   22,  121,  157
  76,  113,  158,   16,   15
  77,  122,   15,   14,  153
  78,  181,  122,  153,  209
  79,  498,  377,  445, 1985
  80,   15,  122,  146,  113
  81,  114,  149,    1,    8
  82,  124,  153,   14,   13
  83,  171,   12,   11,  162
  84,  128,  154, 1890,  195
** ... 2056 like lines cut
*Nset, nset=_PickedSet2, internal, generate
    1,  2161,     1
*Elset, elset=_PickedSet2, internal, generate
    1,  2140,     1
** Section: tole
*Shell Section, elset=_PickedSet2, material=acier
0.5, 5
*End Part
**  
**
** ASSEMBLY
**
*Assembly, name=Assembly
**  
*Instance, name=plaque-1, part=plaque
*End Instance
**  
*Node
      1,   166.663925,   233.336075,           0.
*Node
      2,   166.663925,   166.663925,           0.
*Node
      3,   233.336075,   166.663925,           0.
*Node
      4,   233.336075,   233.336075,           0.
*Nset, nset=_PickedSet9, internal
 1,
*Nset, nset=_PickedSet11, internal
 2,
*Nset, nset=_PickedSet13, internal
 3,
*Nset, nset=_PickedSet15, internal
 4,
*Nset, nset=_PickedSet16, internal, generate
 1,  4,  1
*Elset, elset=__PickedSurf8_E1, internal, instance=plaque-1
 75,
*Elset, elset=__PickedSurf8_E3, internal, instance=plaque-1
  95,  99, 190
*Elset, elset=__PickedSurf8_E4, internal, instance=plaque-1
 162,
*Elset, elset=__PickedSurf8_E2, internal, instance=plaque-1
 169, 193, 197
*Surface, type=ELEMENT, name=_PickedSurf8, internal
__PickedSurf8_E1, E1
__PickedSurf8_E3, E3
__PickedSurf8_E4, E4
__PickedSurf8_E2, E2
*Elset, elset=__PickedSurf10_E3, internal, instance=plaque-1
 70, 76, 82, 96
*Elset, elset=__PickedSurf10_E2, internal, instance=plaque-1
  77,  83, 174, 181
*Surface, type=ELEMENT, name=_PickedSurf10, internal
__PickedSurf10_E3, E3
__PickedSurf10_E2, E2
*Elset, elset=__PickedSurf12_E3, internal, instance=plaque-1
  67,  81, 108, 182
*Elset, elset=__PickedSurf12_E2, internal, instance=plaque-1
 168, 171, 172, 179
*Surface, type=ELEMENT, name=_PickedSurf12, internal
__PickedSurf12_E3, E3
__PickedSurf12_E2, E2
*Elset, elset=__PickedSurf14_E3, internal, instance=plaque-1
  89, 101, 105, 106
*Elset, elset=__PickedSurf14_E1, internal, instance=plaque-1
 170,
*Elset, elset=__PickedSurf14_E2, internal, instance=plaque-1, generate
 185,  191,    3
*Surface, type=ELEMENT, name=_PickedSurf14, internal
__PickedSurf14_E3, E3
__PickedSurf14_E1, E1
__PickedSurf14_E2, E2
** Constraint: Constraint-1
*Coupling, constraint name=Constraint-1, ref node=_PickedSet9, surface=_PickedSurf8
*Kinematic
** Constraint: Constraint-2
*Coupling, constraint name=Constraint-2, ref node=_PickedSet11, surface=_PickedSurf10
*Kinematic
** Constraint: Constraint-3
*Coupling, constraint name=Constraint-3, ref node=_PickedSet13, surface=_PickedSurf12
*Kinematic
** Constraint: Constraint-4
*Coupling, constraint name=Constraint-4, ref node=_PickedSet15, surface=_PickedSurf14
*Kinematic
*End Assembly
** 
** MATERIALS
** 
*Material, name=acier
*Density
 7.86e-09,
*Elastic
210000., 0.26
** ----------------------------------------------------------------
** 
** STEP: analyse_modale
** 
*Step, name=analyse_modale, nlgeom=NO, perturbation
*Frequency, eigensolver=Lanczos, sim, acoustic coupling=on, normalization=mass
, , 500., , , 
** 
** BOUNDARY CONDITIONS
** 
** Name: blocage Type: Symmetry/Antisymmetry/Encastre
*Boundary
_PickedSet16, ENCASTRE
** 
** OUTPUT REQUESTS
** 
*Restart, write, frequency=0
** 
** FIELD OUTPUT: F-Output-1
** 
*Output, field
*Node Output, variable=PRESELECT
** 
** HISTORY OUTPUT: H-Output-1
** 
*Output, history
*Energy Output, variable=ALL
*End Step
