*Heading
** Job name: vibration Model name: Model-1
** Generated by: Abaqus/CAE 2025
*Preprint, echo=NO, model=NO, history=NO, contact=NO
**
** PARTS
**
*Part, name=plaque
*Node
      1,   299.749939,   100.250069,           0.
      2,   298.578369,   97.4216385,           0.
      3,   299.749939,   94.5932083,           0.
      4,   302.578369,   93.4216385,           0.
      5,   305.406799,   94.5932083,           0.
      6,   306.578369,   97.4216385,           0.
      7,   305.406799,   100.250069,           0.
      8,   302.578369,   101.421638,           0.
      9,   94.5932083,   100.250069,           0.
     10,   93.4216385,   97.4216385,           0.
     11,   94.5932083,   94.5932083,           0.
     12,   97.4216385,   93.4216385,           0.
     13,   100.250069,   94.5932083,           0.
     14,   101.421638,   97.4216385,           0.
     15,   100.250069,   100.250069,           0.
     16,   97.4216385,   101.421638,           0.
     17,   100.250069,   299.749939,           0.
     18,   101.421638,   302.578369,           0.
     19,   100.250069,   305.406799,           0.
     20,   97.4216385,   306.578369,           0.
** ... 3517 like lines cut
*Element, type=S3
  1, 3016, 3044,  209
  2,  559,  335,  437
  3,  342,  248,  318
  4,  203,  294,  233
  5, 3015,  302,  239
  6, 3075,  268, 3073
  7, 3134,  536,  418
  8, 3021,  291,  218
  9, 3132,  523,  447
 10,  421,  546,  483
 11, 3048,  281,  214
 12,  416,  322,  368
 13,  696,  561,  635
 14,  615,  554,  549
 15, 3082, 2915,  841
 16,  904,  844,  703
 17,  507,  448,  440
 18,  694,  631,  564
 19, 3221,  517,  504
 20, 3223,  794,  752
** ... 84 like lines cut
*Element, type=S4R
 105,  203,  229,  263,  294
 106,    5,  136,  162,  118
 107,    3,  119,  166,  137
 108,  119,    3,    2,  153
 109,  236,  264,  202,  193
 110,  125,  165,   11,   10
 111,   94, 2995, 2955,   95
 112,  125,   10,  126,  160
 113,   16,  117,  174,  142
 114,   23,  138,  176,  116
 115,  142,  173,    9,   16
 116,  116,  149,   24,   23
 117, 3024,  174,  117,  185
 118,  512,  414,  467,  585
 119, 3011,  274,  211,  148
 120,  114,  175,    8,    7
 121,  159, 3022, 3029,  219
 122,  120,  153,    2,    1
 123,   14,  128,  159,  127
 124,   12,  124,  161,  129
** ... 3412 like lines cut
*Nset, nset=_PickedSet2, internal, generate
    1,  3537,     1
*Elset, elset=_PickedSet2, internal, generate
    1,  3536,     1
** Section: tole
*Shell Section, elset=_PickedSet2, material=acier
0.5, 5
*End Part
**  
**
** ASSEMBLY
**
*Assembly, name=Assembly
**  
*Instance, name=plaque-1, part=plaque
*End Instance
**  
*Node
      1,   97.4216385,   302.578369,           0.
*Node
      2,   97.4216385,   97.4216385,           0.
*Node
      3,   302.578369,   97.4216385,           0.
*Node
      4,   302.578369,   302.578369,           0.
*Nset, nset=_PickedSet9, internal
 1,
*Nset, nset=_PickedSet11, internal
 2,
*Nset, nset=_PickedSet13, internal
 3,
*Nset, nset=_PickedSet15, internal
 4,
*Nset, nset=_PickedSet16, internal, generate
 1,  4,  1
*Elset, elset=__PickedSurf8_E3, internal, instance=plaque-1
 116, 132, 203
*Elset, elset=__PickedSurf8_E2, internal, instance=plaque-1
 140, 210, 220
*Elset, elset=__PickedSurf8_E4, internal, instance=plaque-1
 181,
*Elset, elset=__PickedSurf8_E1, internal, instance=plaque-1
 234,
*Surface, type=ELEMENT, name=_PickedSurf8, internal
__PickedSurf8_E3, E3
__PickedSurf8_E2, E2
__PickedSurf8_E4, E4
__PickedSurf8_E1, E1
*Elset, elset=__PickedSurf10_E3, internal, instance=plaque-1
 110, 115, 159
*Elset, elset=__PickedSurf10_E4, internal, instance=plaque-1
 195,
*Elset, elset=__PickedSurf10_E2, internal, instance=plaque-1
 212, 222, 224
*Elset, elset=__PickedSurf10_E1, internal, instance=plaque-1
 213,
*Surface, type=ELEMENT, name=_PickedSurf10, internal
__PickedSurf10_E3, E3
__PickedSurf10_E4, E4
__PickedSurf10_E2, E2
__PickedSurf10_E1, E1
*Elset, elset=__PickedSurf12_E2, internal, instance=plaque-1
 108, 148, 214, 216
*Elset, elset=__PickedSurf12_E3, internal, instance=plaque-1
 120, 122, 126, 154
*Surface, type=ELEMENT, name=_PickedSurf12, internal
__PickedSurf12_E2, E2
__PickedSurf12_E3, E3
*Elset, elset=__PickedSurf14_E3, internal, instance=plaque-1
 130, 142, 167
*Elset, elset=__PickedSurf14_E2, internal, instance=plaque-1
 146, 226, 227, 230
*Elset, elset=__PickedSurf14_E1, internal, instance=plaque-1
 207,
*Surface, type=ELEMENT, name=_PickedSurf14, internal
__PickedSurf14_E3, E3
__PickedSurf14_E2, E2
__PickedSurf14_E1, E1
** Constraint: Constraint-1
*Coupling, constraint name=Constraint-1, ref node=_PickedSet9, surface=_PickedSurf8
*Kinematic
** Constraint: Constraint-2
*Coupling, constraint name=Constraint-2, ref node=_PickedSet11, surface=_PickedSurf10
*Kinematic
** Constraint: Constraint-3
*Coupling, constraint name=Constraint-3, ref node=_PickedSet13, surface=_PickedSurf12
*Kinematic
** Constraint: Constraint-4
*Coupling, constraint name=Constraint-4, ref node=_PickedSet15, surface=_PickedSurf14
*Kinematic
*End Assembly
** 
** MATERIALS
** 
*Material, name=acier
*Density
 7.86e-09,
*Elastic
210000., 0.26
** ----------------------------------------------------------------
** 
** STEP: analyse_modale
** 
*Step, name=analyse_modale, nlgeom=NO, perturbation
*Frequency, eigensolver=Lanczos, sim, acoustic coupling=on, normalization=mass
, , 500., , , 
** 
** BOUNDARY CONDITIONS
** 
** Name: blocage Type: Symmetry/Antisymmetry/Encastre
*Boundary
_PickedSet16, ENCASTRE
** 
** OUTPUT REQUESTS
** 
*Restart, write, frequency=0
** 
** FIELD OUTPUT: F-Output-1
** 
*Output, field
*Node Output, variable=PRESELECT
** 
** HISTORY OUTPUT: H-Output-1
** 
*Output, history
*Energy Output, variable=ALL
*End Step
