*Heading
** Job name: vibration Model name: Model-1
** Generated by: Abaqus/CAE 2025
*Preprint, echo=NO, model=NO, history=NO, contact=NO
**
** PARTS
**
*Part, name=plaque
*Node
      1,   362.157288,    37.842701,           0.
      2,   360.985718,   35.0142746,           0.
      3,   362.157288,   32.1858482,           0.
      4,   364.985718,   31.0142746,           0.
      5,   367.814148,   32.1858482,           0.
      6,   368.985718,   35.0142746,           0.
      7,   367.814148,    37.842701,           0.
      8,   364.985718,   39.0142746,           0.
      9,   32.1858482,    37.842701,           0.
     10,   31.0142746,   35.0142746,           0.
     11,   32.1858482,   32.1858482,           0.
     12,   35.0142746,   31.0142746,           0.
     13,    37.842701,   32.1858482,           0.
     14,   39.0142746,   35.0142746,           0.
     15,    37.842701,    37.842701,           0.
     16,   35.0142746,   39.0142746,           0.
     17,    37.842701,   362.157288,           0.
     18,   39.0142746,   364.985718,           0.
     19,    37.842701,   367.814148,           0.
     20,   35.0142746,   368.985718,           0.
** ... 790 like lines cut
*Element, type=S3
 1, 146, 129, 726
 2, 128, 127,  29
 3, 747, 421, 316
 4, 131, 191, 160
 5, 144, 113, 711
 6, 166, 712, 117
 7, 154, 723, 119
 8, 237, 174, 201
 9, 158, 194, 218
10, 191, 131, 151
11, 134,  22,  21
12, 214, 208, 185
13, 210, 186, 191
14,  27, 148,  28
15, 244, 238, 204
16, 734, 149, 161
17, 211,  96,  95
18, 203, 228, 172
19, 320, 266, 230
20, 378, 311, 365
** ... 32 like lines cut
*Element, type=S4R
 53, 186, 181, 160, 191
 54,   5, 131, 160,   6
 55, 132,   3, 116, 195
 56, 116,   3,   2, 713
 57, 189, 159, 121, 155
 58, 122,  11,  10, 158
 59, 123,   9, 716, 717
 60,   9,  16, 115, 716
 61, 724, 149, 207, 178
 62, 167,  24, 141, 738
 63, 718, 136,  16,  15
 64, 164, 171, 739, 199
 65, 362, 239, 242, 313
 66,  43, 333, 287,  44
 67,  14,  13, 719, 125
 68,   8,   7, 138, 711
 69, 125, 157, 124,  14
 70, 126,  12, 121, 721
 71, 714,   1, 113, 140
 72, 224, 255, 271, 746
** ... 711 like lines cut
*Nset, nset=_PickedSet2, internal, generate
   1,  810,    1
*Elset, elset=_PickedSet2, internal, generate
   1,  783,    1
** Section: tole
*Shell Section, elset=_PickedSet2, material=acier
0.5, 5
*End Part
**  
**
** ASSEMBLY
**
*Assembly, name=Assembly
**  
*Instance, name=plaque-1, part=plaque
*End Instance
**  
*Node
      1,   35.0142746,   364.985718,           0.
*Node
      2,   35.0142746,   35.0142746,           0.
*Node
      3,   364.985718,   35.0142746,           0.
*Node
      4,   364.985718,   364.985718,           0.
*Nset, nset=_PickedSet9, internal
 1,
*Nset, nset=_PickedSet11, internal
 2,
*Nset, nset=_PickedSet13, internal
 3,
*Nset, nset=_PickedSet15, internal
 4,
*Nset, nset=_PickedSet16, internal, generate
 1,  4,  1
*Elset, elset=__PickedSurf8_E2, internal, instance=plaque-1
  11,  78, 148, 768
*Elset, elset=__PickedSurf8_E4, internal, instance=plaque-1
  76, 138
*Elset, elset=__PickedSurf8_E3, internal, instance=plaque-1
 141, 147
*Surface, type=ELEMENT, name=_PickedSurf8, internal
__PickedSurf8_E2, E2
__PickedSurf8_E4, E4
__PickedSurf8_E3, E3
*Elset, elset=__PickedSurf10_E2, internal, instance=plaque-1
  58, 128, 150
*Elset, elset=__PickedSurf10_E1, internal, instance=plaque-1
  60,  67, 153, 155
*Elset, elset=__PickedSurf10_E3, internal, instance=plaque-1
 63,
*Surface, type=ELEMENT, name=_PickedSurf10, internal
__PickedSurf10_E2, E2
__PickedSurf10_E1, E1
__PickedSurf10_E3, E3
*Elset, elset=__PickedSurf12_E4, internal, instance=plaque-1
  54, 112
*Elset, elset=__PickedSurf12_E2, internal, instance=plaque-1
  56, 144, 145
*Elset, elset=__PickedSurf12_E1, internal, instance=plaque-1
  68, 146
*Elset, elset=__PickedSurf12_E3, internal, instance=plaque-1
 86,
*Surface, type=ELEMENT, name=_PickedSurf12, internal
__PickedSurf12_E4, E4
__PickedSurf12_E2, E2
__PickedSurf12_E1, E1
__PickedSurf12_E3, E3
*Elset, elset=__PickedSurf14_E3, internal, instance=plaque-1
 14, 40, 79
*Elset, elset=__PickedSurf14_E2, internal, instance=plaque-1
  73,  82,  83, 102
*Elset, elset=__PickedSurf14_E1, internal, instance=plaque-1
 159,
*Surface, type=ELEMENT, name=_PickedSurf14, internal
__PickedSurf14_E3, E3
__PickedSurf14_E2, E2
__PickedSurf14_E1, E1
** Constraint: Constraint-1
*Coupling, constraint name=Constraint-1, ref node=_PickedSet9, surface=_PickedSurf8
*Kinematic
** Constraint: Constraint-2
*Coupling, constraint name=Constraint-2, ref node=_PickedSet11, surface=_PickedSurf10
*Kinematic
** Constraint: Constraint-3
*Coupling, constraint name=Constraint-3, ref node=_PickedSet13, surface=_PickedSurf12
*Kinematic
** Constraint: Constraint-4
*Coupling, constraint name=Constraint-4, ref node=_PickedSet15, surface=_PickedSurf14
*Kinematic
*End Assembly
** 
** MATERIALS
** 
*Material, name=acier
*Density
 7.86e-09,
*Elastic
210000., 0.26
** ----------------------------------------------------------------
** 
** STEP: analyse_modale
** 
*Step, name=analyse_modale, nlgeom=NO, perturbation
*Frequency, eigensolver=Lanczos, sim, acoustic coupling=on, normalization=mass
, , 500., , , 
** 
** BOUNDARY CONDITIONS
** 
** Name: blocage Type: Symmetry/Antisymmetry/Encastre
*Boundary
_PickedSet16, ENCASTRE
** 
** OUTPUT REQUESTS
** 
*Restart, write, frequency=0
** 
** FIELD OUTPUT: F-Output-1
** 
*Output, field
*Node Output, variable=PRESELECT
** 
** HISTORY OUTPUT: H-Output-1
** 
*Output, history
*Energy Output, variable=ALL
*End Step
