*Heading
** Job name: vibration Model name: Model-1
** Generated by: Abaqus/CAE 2025
*Preprint, echo=NO, model=NO, history=NO, contact=NO
**
** PARTS
**
*Part, name=plaque
*Node
      1,   362.592682,   37.4073181,           0.
      2,   361.421112,   34.5788918,           0.
      3,   362.592682,   31.7504654,           0.
      4,   365.421112,   30.5788918,           0.
      5,   368.249542,   31.7504654,           0.
      6,   369.421112,   34.5788918,           0.
      7,   368.249542,   37.4073181,           0.
      8,   365.421112,   38.5788918,           0.
      9,   31.7504654,   37.4073181,           0.
     10,   30.5788918,   34.5788918,           0.
     11,   31.7504654,   31.7504654,           0.
     12,   34.5788918,   30.5788918,           0.
     13,   37.4073181,   31.7504654,           0.
     14,   38.5788918,   34.5788918,           0.
     15,   37.4073181,   37.4073181,           0.
     16,   34.5788918,   38.5788918,           0.
     17,   37.4073181,   362.592682,           0.
     18,   38.5788918,   365.421112,           0.
     19,   37.4073181,   368.249542,           0.
     20,   34.5788918,   369.421112,           0.
** ... 814 like lines cut
*Element, type=S3
 1, 745, 194, 159
 2, 204, 125, 152
 3, 742, 166, 137
 4, 252, 748, 190
 5, 769, 158, 187
 6, 773, 115, 138
 7, 233, 219, 214
 8, 793, 251, 193
 9, 154,  75, 205
10, 201, 187, 158
11, 191, 186, 141
12,  94, 199, 180
13, 774, 220, 195
14, 186, 180, 151
15, 182, 210, 176
16, 336, 282, 276
17, 410, 293, 349
18, 564, 526, 523
19, 810, 527, 563
20, 565, 525, 518
** ... 14 like lines cut
*Element, type=S4R
 35, 147, 179, 200, 183
 36, 179, 153, 181, 200
 37, 181, 153,   5,   4
 38, 743,   3, 117, 177
 39,   3,   2, 741, 117
 40, 204, 152, 121, 199
 41, 149, 121,  11, 122
 42, 116, 141,  10,   9
 43,   9,  16, 168, 116
 44, 778, 746, 131, 780
 45,  23,  22, 131, 746
 46, 159,  15, 123, 745
 47, 778, 174, 138, 114
 48, 218, 210, 236, 249
 49, 279, 275, 269, 278
 50,  14,  13, 124, 744
 51, 137,   8, 113, 742
 52, 124, 176, 123, 744
 53, 121, 152,  12,  11
 54,   6, 179, 147, 118
** ... 744 like lines cut
*Nset, nset=_PickedSet2, internal, generate
   1,  834,    1
*Elset, elset=_PickedSet2, internal, generate
   1,  798,    1
** Section: tole
*Shell Section, elset=_PickedSet2, material=acier
0.5, 5
*End Part
**  
**
** ASSEMBLY
**
*Assembly, name=Assembly
**  
*Instance, name=plaque-1, part=plaque
*End Instance
**  
*Node
      1,   34.5788918,   365.421112,           0.
*Node
      2,   34.5788918,   34.5788918,           0.
*Node
      3,   365.421112,   34.5788918,           0.
*Node
      4,   365.421112,   365.421112,           0.
*Nset, nset=_PickedSet9, internal
 1,
*Nset, nset=_PickedSet11, internal
 2,
*Nset, nset=_PickedSet13, internal
 3,
*Nset, nset=_PickedSet15, internal
 4,
*Nset, nset=_PickedSet16, internal, generate
 1,  4,  1
*Elset, elset=__PickedSurf8_E1, internal, instance=plaque-1
  45, 150
*Elset, elset=__PickedSurf8_E3, internal, instance=plaque-1
 59, 64
*Elset, elset=__PickedSurf8_E2, internal, instance=plaque-1
  61, 130
*Elset, elset=__PickedSurf8_E4, internal, instance=plaque-1
 101, 106
*Surface, type=ELEMENT, name=_PickedSurf8, internal
__PickedSurf8_E1, E1
__PickedSurf8_E3, E3
__PickedSurf8_E2, E2
__PickedSurf8_E4, E4
*Elset, elset=__PickedSurf10_E3, internal, instance=plaque-1
 42, 53
*Elset, elset=__PickedSurf10_E1, internal, instance=plaque-1
 43, 50
*Elset, elset=__PickedSurf10_E4, internal, instance=plaque-1
 118,
*Elset, elset=__PickedSurf10_E2, internal, instance=plaque-1
 138, 140, 169
*Surface, type=ELEMENT, name=_PickedSurf10, internal
__PickedSurf10_E3, E3
__PickedSurf10_E1, E1
__PickedSurf10_E4, E4
__PickedSurf10_E2, E2
*Elset, elset=__PickedSurf12_E3, internal, instance=plaque-1
 37, 55, 68
*Elset, elset=__PickedSurf12_E1, internal, instance=plaque-1
  39,  99, 148
*Elset, elset=__PickedSurf12_E2, internal, instance=plaque-1
 129, 133
*Surface, type=ELEMENT, name=_PickedSurf12, internal
__PickedSurf12_E3, E3
__PickedSurf12_E1, E1
__PickedSurf12_E2, E2
*Elset, elset=__PickedSurf14_E1, internal, instance=plaque-1
  58, 147
*Elset, elset=__PickedSurf14_E2, internal, instance=plaque-1
  67,  70, 143
*Elset, elset=__PickedSurf14_E3, internal, instance=plaque-1
 71,
*Elset, elset=__PickedSurf14_E4, internal, instance=plaque-1
  72, 146
*Surface, type=ELEMENT, name=_PickedSurf14, internal
__PickedSurf14_E1, E1
__PickedSurf14_E2, E2
__PickedSurf14_E4, E4
__PickedSurf14_E3, E3
** Constraint: Constraint-1
*Coupling, constraint name=Constraint-1, ref node=_PickedSet9, surface=_PickedSurf8
*Kinematic
** Constraint: Constraint-2
*Coupling, constraint name=Constraint-2, ref node=_PickedSet11, surface=_PickedSurf10
*Kinematic
** Constraint: Constraint-3
*Coupling, constraint name=Constraint-3, ref node=_PickedSet13, surface=_PickedSurf12
*Kinematic
** Constraint: Constraint-4
*Coupling, constraint name=Constraint-4, ref node=_PickedSet15, surface=_PickedSurf14
*Kinematic
*End Assembly
** 
** MATERIALS
** 
*Material, name=acier
*Density
 7.86e-09,
*Elastic
210000., 0.26
** ----------------------------------------------------------------
** 
** STEP: analyse_modale
** 
*Step, name=analyse_modale, nlgeom=NO, perturbation
*Frequency, eigensolver=Lanczos, sim, acoustic coupling=on, normalization=mass
, , 500., , , 
** 
** BOUNDARY CONDITIONS
** 
** Name: blocage Type: Symmetry/Antisymmetry/Encastre
*Boundary
_PickedSet16, ENCASTRE
** 
** OUTPUT REQUESTS
** 
*Restart, write, frequency=0
** 
** FIELD OUTPUT: F-Output-1
** 
*Output, field
*Node Output, variable=PRESELECT
** 
** HISTORY OUTPUT: H-Output-1
** 
*Output, history
*Energy Output, variable=ALL
*End Step
