*Heading
** Job name: vibration Model name: Model-1
** Generated by: Abaqus/CAE 2025
*Preprint, echo=NO, model=NO, history=NO, contact=NO
**
** PARTS
**
*Part, name=plaque
*Node
      1,   266.599609,   133.400375,           0.
      2,    265.42804,   130.571945,           0.
      3,   266.599609,   127.743523,           0.
      4,    269.42804,   126.571953,           0.
      5,    272.25647,   127.743523,           0.
      6,    273.42804,   130.571945,           0.
      7,    272.25647,   133.400375,           0.
      8,    269.42804,   134.571945,           0.
      9,   127.743523,   133.400375,           0.
     10,   126.571953,   130.571945,           0.
     11,   127.743523,   127.743523,           0.
     12,   130.571945,   126.571953,           0.
     13,   133.400375,   127.743523,           0.
     14,   134.571945,   130.571945,           0.
     15,   133.400375,   133.400375,           0.
     16,   130.571945,   134.571945,           0.
     17,   133.400375,   266.599609,           0.
     18,   134.571945,    269.42804,           0.
     19,   133.400375,    272.25647,           0.
     20,   130.571945,    273.42804,           0.
** ... 3226 like lines cut
*Element, type=S3
  1,  295,  230,  262
  2,  317,  224, 2789
  3,  418, 2814,  359
  4, 2863,  637,  486
  5,  887, 1056,  886
  6, 2832,  323, 2800
  7,  580,  502,  329
  8,  442,  513,  348
  9, 2875,  528, 2944
 10,  578,  730,  575
 11, 2906,  659,  509
 12,  575,  430,  505
 13,  633,  862,  697
 14,  877,  644,  735
 15, 2841, 2881,  487
 16, 2944,  747,  604
 17,  672,  551,  622
 18, 1823,  790,  875
 19, 2905,  703,  865
 20,  709,  637,  560
** ... 88 like lines cut
*Element, type=S4R
 109,    6,  156,  120,    7
 110,  192,  289,  255, 2793
 111,  258,  286,  226,  162
 112,    5,  134,  162,  117
 113,  326,  258,  295,  377
 114,  118,  164,    3,    2
 115,   14,   13,  161,  150
 116,  324,  294, 2784,  283
 117,   11,  124,  160,  123
 118,  228, 2797,  199, 2792
 119, 2623, 2774, 2720, 2737
 120,    9,  114,  155,  125
 121,  143,  206,  187,  114
 122,  136,  145,   23,   22
 123,  290,  259,  325, 2820
 124,  181,  209,  152,  126
 125,   15,  126,  152,  140
 126,  335,  332,  297,  245
 127,  178, 2781, 2808,  244
 128,  119,  147,  118,    2
** ... 3119 like lines cut
*Nset, nset=_PickedSet2, internal, generate
    1,  3246,     1
*Elset, elset=_PickedSet2, internal, generate
    1,  3247,     1
** Section: tole
*Shell Section, elset=_PickedSet2, material=acier
0.5, 5
*End Part
**  
**
** ASSEMBLY
**
*Assembly, name=Assembly
**  
*Instance, name=plaque-1, part=plaque
*End Instance
**  
*Node
      1,   130.571945,    269.42804,           0.
*Node
      2,   130.571945,   130.571945,           0.
*Node
      3,    269.42804,   130.571945,           0.
*Node
      4,    269.42804,    269.42804,           0.
*Nset, nset=_PickedSet9, internal
 1,
*Nset, nset=_PickedSet11, internal
 2,
*Nset, nset=_PickedSet13, internal
 3,
*Nset, nset=_PickedSet15, internal
 4,
*Nset, nset=_PickedSet16, internal, generate
 1,  4,  1
*Elset, elset=__PickedSurf8_E3, internal, instance=plaque-1
 122, 141
*Elset, elset=__PickedSurf8_E2, internal, instance=plaque-1
 146, 226, 239, 241, 243
*Elset, elset=__PickedSurf8_E1, internal, instance=plaque-1
 227,
*Surface, type=ELEMENT, name=_PickedSurf8, internal
__PickedSurf8_E3, E3
__PickedSurf8_E2, E2
__PickedSurf8_E1, E1
*Elset, elset=__PickedSurf10_E1, internal, instance=plaque-1
 115, 220
*Elset, elset=__PickedSurf10_E3, internal, instance=plaque-1
 130, 208
*Elset, elset=__PickedSurf10_E4, internal, instance=plaque-1
 205,
*Elset, elset=__PickedSurf10_E2, internal, instance=plaque-1
 219, 230, 232
*Surface, type=ELEMENT, name=_PickedSurf10, internal
__PickedSurf10_E1, E1
__PickedSurf10_E3, E3
__PickedSurf10_E4, E4
__PickedSurf10_E2, E2
*Elset, elset=__PickedSurf12_E4, internal, instance=plaque-1
 109,
*Elset, elset=__PickedSurf12_E3, internal, instance=plaque-1
 114, 132, 161
*Elset, elset=__PickedSurf12_E2, internal, instance=plaque-1
 217, 221, 222
*Elset, elset=__PickedSurf12_E1, internal, instance=plaque-1
 218,
*Surface, type=ELEMENT, name=_PickedSurf12, internal
__PickedSurf12_E4, E4
__PickedSurf12_E3, E3
__PickedSurf12_E2, E2
__PickedSurf12_E1, E1
*Elset, elset=__PickedSurf14_E3, internal, instance=plaque-1
 135, 144, 150, 153
*Elset, elset=__PickedSurf14_E4, internal, instance=plaque-1
 174, 196, 259
*Elset, elset=__PickedSurf14_E2, internal, instance=plaque-1
 234,
*Surface, type=ELEMENT, name=_PickedSurf14, internal
__PickedSurf14_E3, E3
__PickedSurf14_E4, E4
__PickedSurf14_E2, E2
** Constraint: Constraint-1
*Coupling, constraint name=Constraint-1, ref node=_PickedSet9, surface=_PickedSurf8
*Kinematic
** Constraint: Constraint-2
*Coupling, constraint name=Constraint-2, ref node=_PickedSet11, surface=_PickedSurf10
*Kinematic
** Constraint: Constraint-3
*Coupling, constraint name=Constraint-3, ref node=_PickedSet13, surface=_PickedSurf12
*Kinematic
** Constraint: Constraint-4
*Coupling, constraint name=Constraint-4, ref node=_PickedSet15, surface=_PickedSurf14
*Kinematic
*End Assembly
** 
** MATERIALS
** 
*Material, name=acier
*Density
 7.86e-09,
*Elastic
210000., 0.26
** ----------------------------------------------------------------
** 
** STEP: analyse_modale
** 
*Step, name=analyse_modale, nlgeom=NO, perturbation
*Frequency, eigensolver=Lanczos, sim, acoustic coupling=on, normalization=mass
, , 500., , , 
** 
** BOUNDARY CONDITIONS
** 
** Name: blocage Type: Symmetry/Antisymmetry/Encastre
*Boundary
_PickedSet16, ENCASTRE
** 
** OUTPUT REQUESTS
** 
*Restart, write, frequency=0
** 
** FIELD OUTPUT: F-Output-1
** 
*Output, field
*Node Output, variable=PRESELECT
** 
** HISTORY OUTPUT: H-Output-1
** 
*Output, history
*Energy Output, variable=ALL
*End Step
