*Heading
** Job name: vibration Model name: Model-1
** Generated by: Abaqus/CAE 2025
*Preprint, echo=NO, model=NO, history=NO, contact=NO
**
** PARTS
**
*Part, name=plaque
*Node
      1,   255.814468,   144.185532,           0.
      2,   254.642899,   141.357101,           0.
      3,   255.814468,   138.528671,           0.
      4,   258.642914,   137.357101,           0.
      5,   261.471344,   138.528671,           0.
      6,   262.642914,   141.357101,           0.
      7,   261.471344,   144.185532,           0.
      8,   258.642914,   145.357101,           0.
      9,   138.528671,   144.185532,           0.
     10,   137.357101,   141.357101,           0.
     11,   138.528671,   138.528671,           0.
     12,   141.357101,   137.357101,           0.
     13,   144.185532,   138.528671,           0.
     14,   145.357101,   141.357101,           0.
     15,   144.185532,   144.185532,           0.
     16,   141.357101,   145.357101,           0.
     17,   144.185532,   255.814468,           0.
     18,   145.357101,   258.642914,           0.
     19,   144.185532,   261.471344,           0.
     20,   141.357101,   262.642914,           0.
** ... 3034 like lines cut
*Element, type=S3
 1, 2739,  837,  747
 2,  263,  200,  232
 3,  209,  115,  143
 4,  599,  445,  523
 5,  352,  213,  246
 6,  320,  282,  250
 7, 2662,  562,  573
 8, 2642,  424,  306
 9,  703,  791,  545
10,  432,  514,  323
11, 2699,  754,  846
12,  507,  441,  371
13, 2654,  461,  533
14, 2639,  456,  401
15,  616, 2653,  529
16,  385,  574,  448
17,  791,  470,  545
18,  450,  548,  542
19, 2363, 1010, 1095
20,  777,  637,  698
** ... 76 like lines cut
*Element, type=S4R
  97, 2587, 2584,  332,  434
  98,  195,  230,  297,  257
  99, 2630,  382,  499,  297
 100,    4,  122,  162,  135
 101,  122,  202,  264,  162
 102,  160,  128,   13,  129
 103,  165,  161,  196,  261
 104,  123,  161,   11,   10
 105, 2377, 2560, 2482, 2516
 106,  124,  163,  123,   10
 107,  174,  217,  151,  114
 108,  329, 2586,  444, 2644
 109,  114,  151,   16,   15
 110,  126,   15,   14,  148
 111,  207,  270,  247,  178
 112,    8,  113,  152,  140
 113,   15,  126,  142,  114
 114,  180,  140,  152, 2573
 115,  128,  148,   14,   13
 116,  165,   12,   11,  161
** ... 2933 like lines cut
*Nset, nset=_PickedSet2, internal, generate
    1,  3054,     1
*Elset, elset=_PickedSet2, internal, generate
    1,  3049,     1
** Section: tole
*Shell Section, elset=_PickedSet2, material=acier
0.5, 5
*End Part
**  
**
** ASSEMBLY
**
*Assembly, name=Assembly
**  
*Instance, name=plaque-1, part=plaque
*End Instance
**  
*Node
      1,   141.357101,   258.642914,           0.
*Node
      2,   141.357101,   141.357101,           0.
*Node
      3,   258.642914,   141.357101,           0.
*Node
      4,   258.642914,   258.642914,           0.
*Nset, nset=_PickedSet9, internal
 1,
*Nset, nset=_PickedSet11, internal
 2,
*Nset, nset=_PickedSet13, internal
 3,
*Nset, nset=_PickedSet15, internal
 4,
*Nset, nset=_PickedSet16, internal, generate
 1,  4,  1
*Elset, elset=__PickedSurf8_E3, internal, instance=plaque-1
 128, 130, 202
*Elset, elset=__PickedSurf8_E4, internal, instance=plaque-1
 194,
*Elset, elset=__PickedSurf8_E2, internal, instance=plaque-1
 203, 207, 225
*Elset, elset=__PickedSurf8_E1, internal, instance=plaque-1
 208,
*Surface, type=ELEMENT, name=_PickedSurf8, internal
__PickedSurf8_E3, E3
__PickedSurf8_E4, E4
__PickedSurf8_E2, E2
__PickedSurf8_E1, E1
*Elset, elset=__PickedSurf10_E3, internal, instance=plaque-1
 104, 109, 115
*Elset, elset=__PickedSurf10_E2, internal, instance=plaque-1
 110, 116, 213, 219
*Elset, elset=__PickedSurf10_E4, internal, instance=plaque-1
 244,
*Surface, type=ELEMENT, name=_PickedSurf10, internal
__PickedSurf10_E3, E3
__PickedSurf10_E2, E2
__PickedSurf10_E4, E4
*Elset, elset=__PickedSurf12_E4, internal, instance=plaque-1
 119,
*Elset, elset=__PickedSurf12_E3, internal, instance=plaque-1
 138,
*Elset, elset=__PickedSurf12_E1, internal, instance=plaque-1
 201, 205, 212
*Elset, elset=__PickedSurf12_E2, internal, instance=plaque-1, generate
 204,  218,    7
*Surface, type=ELEMENT, name=_PickedSurf12, internal
__PickedSurf12_E4, E4
__PickedSurf12_E3, E3
__PickedSurf12_E2, E2
__PickedSurf12_E1, E1
*Elset, elset=__PickedSurf14_E3, internal, instance=plaque-1
 121, 158
*Elset, elset=__PickedSurf14_E4, internal, instance=plaque-1
 161, 179
*Elset, elset=__PickedSurf14_E2, internal, instance=plaque-1
 200, 223, 224
*Elset, elset=__PickedSurf14_E1, internal, instance=plaque-1
 232,
*Surface, type=ELEMENT, name=_PickedSurf14, internal
__PickedSurf14_E3, E3
__PickedSurf14_E4, E4
__PickedSurf14_E2, E2
__PickedSurf14_E1, E1
** Constraint: Constraint-1
*Coupling, constraint name=Constraint-1, ref node=_PickedSet9, surface=_PickedSurf8
*Kinematic
** Constraint: Constraint-2
*Coupling, constraint name=Constraint-2, ref node=_PickedSet11, surface=_PickedSurf10
*Kinematic
** Constraint: Constraint-3
*Coupling, constraint name=Constraint-3, ref node=_PickedSet13, surface=_PickedSurf12
*Kinematic
** Constraint: Constraint-4
*Coupling, constraint name=Constraint-4, ref node=_PickedSet15, surface=_PickedSurf14
*Kinematic
*End Assembly
** 
** MATERIALS
** 
*Material, name=acier
*Density
 7.86e-09,
*Elastic
210000., 0.26
** ----------------------------------------------------------------
** 
** STEP: analyse_modale
** 
*Step, name=analyse_modale, nlgeom=NO, perturbation
*Frequency, eigensolver=Lanczos, sim, acoustic coupling=on, normalization=mass
, , 500., , , 
** 
** BOUNDARY CONDITIONS
** 
** Name: blocage Type: Symmetry/Antisymmetry/Encastre
*Boundary
_PickedSet16, ENCASTRE
** 
** OUTPUT REQUESTS
** 
*Restart, write, frequency=0
** 
** FIELD OUTPUT: F-Output-1
** 
*Output, field
*Node Output, variable=PRESELECT
** 
** HISTORY OUTPUT: H-Output-1
** 
*Output, history
*Energy Output, variable=ALL
*End Step
