*Heading
** Job name: vibration Model name: Model-1
** Generated by: Abaqus/CAE 2025
*Preprint, echo=NO, model=NO, history=NO, contact=NO
**
** PARTS
**
*Part, name=plaque
*Node
      1,   235.930634,   164.069366,           0.
      2,   234.759064,   161.240936,           0.
      3,   235.930634,   158.412506,           0.
      4,   238.759064,   157.240936,           0.
      5,   241.587494,   158.412506,           0.
      6,   242.759064,   161.240936,           0.
      7,   241.587494,   164.069366,           0.
      8,   238.759064,   165.240936,           0.
      9,   158.412506,   164.069366,           0.
     10,   157.240936,   161.240936,           0.
     11,   158.412506,   158.412506,           0.
     12,   161.240936,   157.240936,           0.
     13,   164.069366,   158.412506,           0.
     14,   165.240936,   161.240936,           0.
     15,   164.069366,   164.069366,           0.
     16,   161.240936,   165.240936,           0.
     17,   164.069366,   235.930634,           0.
     18,   165.240936,   238.759064,           0.
     19,   164.069366,   241.587494,           0.
     20,   161.240936,   242.759064,           0.
** ... 2369 like lines cut
*Element, type=S3
 1,  215,  115,  146
 2,  271,  189,  245
 3,  274,  193,  229
 4,  402,  262,  290
 5,  366, 2087,  273
 6,  636,  472,  491
 7,  321,  546,  445
 8,  509,  390,  460
 9,  506,  374,  467
10,  529,  557, 2077
11, 2264, 2263, 1238
12, 1421, 1359, 1302
13, 1091, 2318, 1176
14, 1089,  899,  981
15,  755,  677,  600
16, 2209, 1159,  973
17, 1314, 1243, 1161
18, 1235, 1061, 1141
19,  991,  896,  893
20, 2255, 1090,  900
** ... 56 like lines cut
*Element, type=S4R
  77,  251,  192,  230,  342
  78,  548,  364,  312,  421
  79,  118,  158,    5,    4
  80,  273,  201,  236,  366
  81,  189,  126,  170,  245
  82,    3,    2,  127,  162
  83,  228, 2025,  199,  160
  84,  120,  160,   11,   10
  85,  200,  234, 2043,  272
  86, 1789, 2021, 1899, 1926
  87,  195,  140,   16,  156
  88,  257,  242,  287,  332
  89,   10,  121,  168,  120
  90,  134,   22,   21,  161
  91,  113,  156,   16,   15
  92,  123,   15,   14,  152
  93,  181,  123,  152,  208
  94,  447,  503,  416,  355
  95,   15,  123,  144,  113
  96,  114,  148,    1,    8
** ... 2278 like lines cut
*Nset, nset=_PickedSet2, internal, generate
    1,  2389,     1
*Elset, elset=_PickedSet2, internal, generate
    1,  2374,     1
** Section: tole
*Shell Section, elset=_PickedSet2, material=acier
0.5, 5
*End Part
**  
**
** ASSEMBLY
**
*Assembly, name=Assembly
**  
*Instance, name=plaque-1, part=plaque
*End Instance
**  
*Node
      1,   161.240936,   238.759064,           0.
*Node
      2,   161.240936,   161.240936,           0.
*Node
      3,   238.759064,   161.240936,           0.
*Node
      4,   238.759064,   238.759064,           0.
*Nset, nset=_PickedSet9, internal
 1,
*Nset, nset=_PickedSet11, internal
 2,
*Nset, nset=_PickedSet13, internal
 3,
*Nset, nset=_PickedSet15, internal
 4,
*Nset, nset=_PickedSet16, internal, generate
 1,  4,  1
*Elset, elset=__PickedSurf8_E2, internal, instance=plaque-1
  90, 183, 203, 207
*Elset, elset=__PickedSurf8_E3, internal, instance=plaque-1
 112, 116, 181, 201
*Surface, type=ELEMENT, name=_PickedSurf8, internal
__PickedSurf8_E2, E2
__PickedSurf8_E3, E3
*Elset, elset=__PickedSurf10_E3, internal, instance=plaque-1
  84,  91,  97, 113
*Elset, elset=__PickedSurf10_E2, internal, instance=plaque-1
  92,  98, 188, 195
*Surface, type=ELEMENT, name=_PickedSurf10, internal
__PickedSurf10_E3, E3
__PickedSurf10_E2, E2
*Elset, elset=__PickedSurf12_E3, internal, instance=plaque-1
  79,  96, 126
*Elset, elset=__PickedSurf12_E1, internal, instance=plaque-1
 82,
*Elset, elset=__PickedSurf12_E2, internal, instance=plaque-1
 182, 185, 186, 193
*Surface, type=ELEMENT, name=_PickedSurf12, internal
__PickedSurf12_E3, E3
__PickedSurf12_E1, E1
__PickedSurf12_E2, E2
*Elset, elset=__PickedSurf14_E3, internal, instance=plaque-1
 104, 107, 118, 121, 124
*Elset, elset=__PickedSurf14_E2, internal, instance=plaque-1
 184, 200, 211
*Surface, type=ELEMENT, name=_PickedSurf14, internal
__PickedSurf14_E3, E3
__PickedSurf14_E2, E2
** Constraint: Constraint-1
*Coupling, constraint name=Constraint-1, ref node=_PickedSet9, surface=_PickedSurf8
*Kinematic
** Constraint: Constraint-2
*Coupling, constraint name=Constraint-2, ref node=_PickedSet11, surface=_PickedSurf10
*Kinematic
** Constraint: Constraint-3
*Coupling, constraint name=Constraint-3, ref node=_PickedSet13, surface=_PickedSurf12
*Kinematic
** Constraint: Constraint-4
*Coupling, constraint name=Constraint-4, ref node=_PickedSet15, surface=_PickedSurf14
*Kinematic
*End Assembly
** 
** MATERIALS
** 
*Material, name=acier
*Density
 7.86e-09,
*Elastic
210000., 0.26
** ----------------------------------------------------------------
** 
** STEP: analyse_modale
** 
*Step, name=analyse_modale, nlgeom=NO, perturbation
*Frequency, eigensolver=Lanczos, sim, acoustic coupling=on, normalization=mass
, , 500., , , 
** 
** BOUNDARY CONDITIONS
** 
** Name: blocage Type: Symmetry/Antisymmetry/Encastre
*Boundary
_PickedSet16, ENCASTRE
** 
** OUTPUT REQUESTS
** 
*Restart, write, frequency=0
** 
** FIELD OUTPUT: F-Output-1
** 
*Output, field
*Node Output, variable=PRESELECT
** 
** HISTORY OUTPUT: H-Output-1
** 
*Output, history
*Energy Output, variable=ALL
*End Step
