*Heading
** Job name: vibration Model name: Model-1
** Generated by: Abaqus/CAE 2025
*Preprint, echo=NO, model=NO, history=NO, contact=NO
**
** PARTS
**
*Part, name=plaque
*Node
      1,   272.244385,   127.755608,           0.
      2,   271.072815,   124.927185,           0.
      3,   272.244385,   122.098755,           0.
      4,   275.072815,   120.927185,           0.
      5,   277.901245,   122.098755,           0.
      6,   279.072815,   124.927185,           0.
      7,   277.901245,   127.755608,           0.
      8,   275.072815,   128.927185,           0.
      9,   122.098755,   127.755608,           0.
     10,   120.927185,   124.927185,           0.
     11,   122.098755,   122.098755,           0.
     12,   124.927185,   120.927185,           0.
     13,   127.755608,   122.098755,           0.
     14,   128.927185,   124.927185,           0.
     15,   127.755608,   127.755608,           0.
     16,   124.927185,   128.927185,           0.
     17,   127.755608,   272.244385,           0.
     18,   128.927185,   275.072815,           0.
     19,   127.755608,   277.901245,           0.
     20,   124.927185,   279.072815,           0.
** ... 3369 like lines cut
*Element, type=S3
  1,  198,  286,  227
  2, 2878,  293,  230
  3,  197,  331, 2873
  4,  210,  116,  145
  5,  209,  113,  143
  6,  200,  292,  229
  7, 2873,  294,  231
  8, 2907,  564,  500
  9,  364, 2870,  283
 10,  365, 2875,  285
 11,  330, 2877,  290
 12,  331, 2872,  291
 13,  319,  279,  255
 14,  819,  584,  664
 15, 2962,  398,  303
 16, 2963,  399,  302
 17, 2951,  480,  528
 18,  481,  306,  412
 19,  599, 2961,  532
 20,  414, 2949,  308
** ... 98 like lines cut
*Element, type=S4R
 119,  251,  194,  227,  286
 120,  133,  163,    5,    4
 121,  120,  164,    3,    2
 122,  207,  151, 2869, 2879
 123,  252,  195,  231,  294
 124,  124,  165,   11,   10
 125,   94, 2844, 2754,   95
 126,   10,  125,  160,  124
 127,  114,  154,  141,   16
 128,  203,  135,  162,  229
 129,  136,  169,  228,  192
 130,  136,  172,   23,   22
 131,  186,  139,  172,  236
 132,  336,  392, 2940, 2895
 133,  398,  450,  351,  303
 134,  126,  182, 2869,  151
 135,  116,  147,    1,    8
 136,  127,  166,   13,   12
 137,  164,  217,  204,  134
 138,  155,  122,    6,  119
** ... 3257 like lines cut
*Nset, nset=_PickedSet2, internal, generate
    1,  3389,     1
*Elset, elset=_PickedSet2, internal, generate
    1,  3395,     1
** Section: tole
*Shell Section, elset=_PickedSet2, material=acier
0.5, 5
*End Part
**  
**
** ASSEMBLY
**
*Assembly, name=Assembly
**  
*Instance, name=plaque-1, part=plaque
*End Instance
**  
*Node
      1,   124.927185,   275.072815,           0.
*Node
      2,   124.927185,   124.927185,           0.
*Node
      3,   275.072815,   124.927185,           0.
*Node
      4,   275.072815,   275.072815,           0.
*Nset, nset=_PickedSet9, internal
 1,
*Nset, nset=_PickedSet11, internal
 2,
*Nset, nset=_PickedSet13, internal
 3,
*Nset, nset=_PickedSet15, internal
 4,
*Nset, nset=_PickedSet16, internal, generate
 1,  4,  1
*Elset, elset=__PickedSurf8_E3, internal, instance=plaque-1
 130, 146, 149
*Elset, elset=__PickedSurf8_E2, internal, instance=plaque-1
 213, 219, 243, 245
*Elset, elset=__PickedSurf8_E1, internal, instance=plaque-1
 220,
*Surface, type=ELEMENT, name=_PickedSurf8, internal
__PickedSurf8_E3, E3
__PickedSurf8_E2, E2
__PickedSurf8_E1, E1
*Elset, elset=__PickedSurf10_E3, internal, instance=plaque-1
 124, 136
*Elset, elset=__PickedSurf10_E4, internal, instance=plaque-1
 204,
*Elset, elset=__PickedSurf10_E2, internal, instance=plaque-1
 215, 227, 230
*Elset, elset=__PickedSurf10_E1, internal, instance=plaque-1
 225, 229
*Surface, type=ELEMENT, name=_PickedSurf10, internal
__PickedSurf10_E3, E3
__PickedSurf10_E4, E4
__PickedSurf10_E2, E2
__PickedSurf10_E1, E1
*Elset, elset=__PickedSurf12_E3, internal, instance=plaque-1
 120, 121, 135, 216
*Elset, elset=__PickedSurf12_E2, internal, instance=plaque-1
 218, 222, 223, 240
*Surface, type=ELEMENT, name=_PickedSurf12, internal
__PickedSurf12_E3, E3
__PickedSurf12_E2, E2
*Elset, elset=__PickedSurf14_E3, internal, instance=plaque-1
 150, 152, 155
*Elset, elset=__PickedSurf14_E4, internal, instance=plaque-1
 177,
*Elset, elset=__PickedSurf14_E2, internal, instance=plaque-1
 217, 233, 236
*Elset, elset=__PickedSurf14_E1, internal, instance=plaque-1
 234,
*Surface, type=ELEMENT, name=_PickedSurf14, internal
__PickedSurf14_E3, E3
__PickedSurf14_E4, E4
__PickedSurf14_E2, E2
__PickedSurf14_E1, E1
** Constraint: Constraint-1
*Coupling, constraint name=Constraint-1, ref node=_PickedSet9, surface=_PickedSurf8
*Kinematic
** Constraint: Constraint-2
*Coupling, constraint name=Constraint-2, ref node=_PickedSet11, surface=_PickedSurf10
*Kinematic
** Constraint: Constraint-3
*Coupling, constraint name=Constraint-3, ref node=_PickedSet13, surface=_PickedSurf12
*Kinematic
** Constraint: Constraint-4
*Coupling, constraint name=Constraint-4, ref node=_PickedSet15, surface=_PickedSurf14
*Kinematic
*End Assembly
** 
** MATERIALS
** 
*Material, name=acier
*Density
 7.86e-09,
*Elastic
210000., 0.26
** ----------------------------------------------------------------
** 
** STEP: analyse_modale
** 
*Step, name=analyse_modale, nlgeom=NO, perturbation
*Frequency, eigensolver=Lanczos, sim, acoustic coupling=on, normalization=mass
, , 500., , , 
** 
** BOUNDARY CONDITIONS
** 
** Name: blocage Type: Symmetry/Antisymmetry/Encastre
*Boundary
_PickedSet16, ENCASTRE
** 
** OUTPUT REQUESTS
** 
*Restart, write, frequency=0
** 
** FIELD OUTPUT: F-Output-1
** 
*Output, field
*Node Output, variable=PRESELECT
** 
** HISTORY OUTPUT: H-Output-1
** 
*Output, history
*Energy Output, variable=ALL
*End Step
