*Heading
** Job name: vibration Model name: Model-1
** Generated by: Abaqus/CAE 2025
*Preprint, echo=NO, model=NO, history=NO, contact=NO
**
** PARTS
**
*Part, name=plaque
*Node
      1,   382.094757,   17.9052563,           0.
      2,   380.923157,    15.076828,           0.
      3,   382.094757,   12.2484007,           0.
      4,   384.923157,    11.076828,           0.
      5,   387.751587,   12.2484007,           0.
      6,   388.923157,    15.076828,           0.
      7,   387.751587,   17.9052563,           0.
      8,   384.923157,    19.076828,           0.
      9,   12.2484007,   17.9052563,           0.
     10,    11.076828,    15.076828,           0.
     11,   12.2484007,   12.2484007,           0.
     12,    15.076828,    11.076828,           0.
     13,   17.9052563,   12.2484007,           0.
     14,    19.076828,    15.076828,           0.
     15,   17.9052563,   17.9052563,           0.
     16,    15.076828,    19.076828,           0.
     17,   17.9052563,   382.094757,           0.
     18,    19.076828,   384.923157,           0.
     19,   17.9052563,   387.751587,           0.
     20,    15.076828,   388.923157,           0.
** ... 620 like lines cut
*Element, type=S3
 1,  10, 129,  11
 2, 137,  15, 116
 3, 141,  13,  12
 4,  20, 135,  21
 5, 148,   5,   4
 6, 141,  12, 115
 7, 150,  29,  28
 8, 163, 123, 146
 9, 603, 607, 112
10,   2, 136,   3
11, 138,  74,  73
12,  92, 142,  93
13, 164, 112, 111
14,   5, 148, 120
15, 143,  75, 149
16, 151,  56,  35
17, 153, 116, 117
18,  73, 168, 138
19, 158, 612, 604
20, 163,  95,  94
** ... 28 like lines cut
*Element, type=S4R
 49, 114, 120, 148, 606
 50, 586,   4,   3, 136
 51, 130, 115, 129, 152
 52, 588,  10,   9, 147
 53, 164, 145, 590, 112
 54, 139,  24, 145, 164
 55, 137, 166, 146, 123
 56, 300, 314, 245, 246
 57, 604, 178, 157, 113
 58, 117,  14,  13, 589
 59, 138,   8,   7, 144
 60, 601, 161, 227, 608
 61, 126, 124,   1,   8
 62, 102, 101, 233, 200
 63, 170, 605, 222, 289
 64, 127,  30, 131, 159
 65, 133,  19,  18, 122
 66,  21, 135, 121,  22
 67, 121, 592, 591,  22
 68, 128, 122, 125, 155
** ... 543 like lines cut
*Nset, nset=_PickedSet2, internal, generate
   1,  640,    1
*Elset, elset=_PickedSet2, internal, generate
   1,  611,    1
** Section: tole
*Shell Section, elset=_PickedSet2, material=acier
0.5, 5
*End Part
**  
**
** ASSEMBLY
**
*Assembly, name=Assembly
**  
*Instance, name=plaque-1, part=plaque
*End Instance
**  
*Node
      1,    15.076828,   384.923157,           0.
*Node
      2,    15.076828,    15.076828,           0.
*Node
      3,   384.923157,    15.076828,           0.
*Node
      4,   384.923157,   384.923157,           0.
*Nset, nset=_PickedSet9, internal
 1,
*Nset, nset=_PickedSet11, internal
 2,
*Nset, nset=_PickedSet13, internal
 3,
*Nset, nset=_PickedSet15, internal
 4,
*Nset, nset=_PickedSet16, internal, generate
 1,  4,  1
*Elset, elset=__PickedSurf8_E3, internal, instance=plaque-1
   4, 105, 132, 150
*Elset, elset=__PickedSurf8_E2, internal, instance=plaque-1
 65,
*Elset, elset=__PickedSurf8_E4, internal, instance=plaque-1
  66, 104
*Elset, elset=__PickedSurf8_E1, internal, instance=plaque-1
 148,
*Surface, type=ELEMENT, name=_PickedSurf8, internal
__PickedSurf8_E3, E3
__PickedSurf8_E2, E2
__PickedSurf8_E4, E4
__PickedSurf8_E1, E1
*Elset, elset=__PickedSurf10_E3, internal, instance=plaque-1
 1,
*Elset, elset=__PickedSurf10_E2, internal, instance=plaque-1
   3,  52,  58, 137, 168
*Elset, elset=__PickedSurf10_E4, internal, instance=plaque-1
  88, 119
*Surface, type=ELEMENT, name=_PickedSurf10, internal
__PickedSurf10_E3, E3
__PickedSurf10_E2, E2
__PickedSurf10_E4, E4
*Elset, elset=__PickedSurf12_E2, internal, instance=plaque-1
  5, 50, 59, 75
*Elset, elset=__PickedSurf12_E3, internal, instance=plaque-1
 10, 61
*Elset, elset=__PickedSurf12_E4, internal, instance=plaque-1
 76,
*Elset, elset=__PickedSurf12_E1, internal, instance=plaque-1
 134,
*Surface, type=ELEMENT, name=_PickedSurf12, internal
__PickedSurf12_E2, E2
__PickedSurf12_E3, E3
__PickedSurf12_E4, E4
__PickedSurf12_E1, E1
*Elset, elset=__PickedSurf14_E2, internal, instance=plaque-1
   7,  74,  90, 133
*Elset, elset=__PickedSurf14_E3, internal, instance=plaque-1
 32, 71
*Elset, elset=__PickedSurf14_E1, internal, instance=plaque-1
 142, 143
*Surface, type=ELEMENT, name=_PickedSurf14, internal
__PickedSurf14_E2, E2
__PickedSurf14_E3, E3
__PickedSurf14_E1, E1
** Constraint: Constraint-1
*Coupling, constraint name=Constraint-1, ref node=_PickedSet9, surface=_PickedSurf8
*Kinematic
** Constraint: Constraint-2
*Coupling, constraint name=Constraint-2, ref node=_PickedSet11, surface=_PickedSurf10
*Kinematic
** Constraint: Constraint-3
*Coupling, constraint name=Constraint-3, ref node=_PickedSet13, surface=_PickedSurf12
*Kinematic
** Constraint: Constraint-4
*Coupling, constraint name=Constraint-4, ref node=_PickedSet15, surface=_PickedSurf14
*Kinematic
*End Assembly
** 
** MATERIALS
** 
*Material, name=acier
*Density
 7.86e-09,
*Elastic
210000., 0.26
** ----------------------------------------------------------------
** 
** STEP: analyse_modale
** 
*Step, name=analyse_modale, nlgeom=NO, perturbation
*Frequency, eigensolver=Lanczos, sim, acoustic coupling=on, normalization=mass
, , 500., , , 
** 
** BOUNDARY CONDITIONS
** 
** Name: blocage Type: Symmetry/Antisymmetry/Encastre
*Boundary
_PickedSet16, ENCASTRE
** 
** OUTPUT REQUESTS
** 
*Restart, write, frequency=0
** 
** FIELD OUTPUT: F-Output-1
** 
*Output, field
*Node Output, variable=PRESELECT
** 
** HISTORY OUTPUT: H-Output-1
** 
*Output, history
*Energy Output, variable=ALL
*End Step
