*Heading
** Job name: vibration Model name: Model-1
** Generated by: Abaqus/CAE 2025
*Preprint, echo=NO, model=NO, history=NO, contact=NO
**
** PARTS
**
*Part, name=plaque
*Node
      1,   283.096283,   116.903725,           0.
      2,   281.924713,   114.075302,           0.
      3,   283.096283,   111.246872,           0.
      4,   285.924713,   110.075302,           0.
      5,   288.753113,   111.246872,           0.
      6,   289.924713,   114.075302,           0.
      7,   288.753113,   116.903725,           0.
      8,   285.924713,   118.075302,           0.
      9,   111.246872,   116.903725,           0.
     10,   110.075302,   114.075302,           0.
     11,   111.246872,   111.246872,           0.
     12,   114.075302,   110.075302,           0.
     13,   116.903725,   111.246872,           0.
     14,   118.075302,   114.075302,           0.
     15,   116.903725,   116.903725,           0.
     16,   114.075302,   118.075302,           0.
     17,   116.903725,   283.096283,           0.
     18,   118.075302,   285.924713,           0.
     19,   116.903725,   288.753113,           0.
     20,   114.075302,   289.924713,           0.
** ... 3547 like lines cut
*Element, type=S3
  1,  165,   19,  139
  2, 3142,  268,  297
  3, 3128,  497,  374
  4,  266,  195,  223
  5,  265,  205,  218
  6, 3111, 3071,  284
  7,  192,  283,  220
  8,  368,  215,  248
  9, 3133,  551,  406
 10,  292,  328,  229
 11, 3088,  296,  383
 12,  724,  572,  643
 13,  461,  369,  395
 14,  354,  344,  303
 15,  315,  368,  281
 16,  570,  510,  444
 17, 3120,  347,  353
 18, 3145,  496,  375
 19,  722,  514,  580
 20, 3157,  393,  400
** ... 102 like lines cut
*Element, type=S4R
 123,  260,  203,  225,  290
 124,  292,  260,  330,  376
 125,  136,  163,    5,    4
 126,  119,  167,    3,    2
 127,  166,  261,  204,  124
 128,  166,  124,  125,  195
 129,   54, 2987, 2969,   55
 130,   10,  126,  160,  125
 131,  174,  142,  117,  186
 132,  138,  176,   23,   22
 133,  150,   24,  116, 3053
 134,  215,  174,  186,  248
 135,  145, 3070,  210, 3075
 136, 3081,  273,  211, 3069
 137,  114,  175,    8,    7
 138,  226,  161,  184,  304
 139,  154,  119,  120,  185
 140,  128,  161,   14,   13
 141,  124,  162,   12,   11
 142,    6,  118,  157,  121
** ... 3433 like lines cut
*Nset, nset=_PickedSet2, internal, generate
    1,  3567,     1
*Elset, elset=_PickedSet2, internal, generate
    1,  3575,     1
** Section: tole
*Shell Section, elset=_PickedSet2, material=acier
0.5, 5
*End Part
**  
**
** ASSEMBLY
**
*Assembly, name=Assembly
**  
*Instance, name=plaque-1, part=plaque
*End Instance
**  
*Node
      1,   114.075302,   285.924713,           0.
*Node
      2,   114.075302,   114.075302,           0.
*Node
      3,   285.924713,   114.075302,           0.
*Node
      4,   285.924713,   285.924713,           0.
*Nset, nset=_PickedSet9, internal
 1,
*Nset, nset=_PickedSet11, internal
 2,
*Nset, nset=_PickedSet13, internal
 3,
*Nset, nset=_PickedSet15, internal
 4,
*Nset, nset=_PickedSet16, internal, generate
 1,  4,  1
*Elset, elset=__PickedSurf8_E3, internal, instance=plaque-1
 132, 144, 150
*Elset, elset=__PickedSurf8_E2, internal, instance=plaque-1
 153, 226, 238, 239, 254
*Surface, type=ELEMENT, name=_PickedSurf8, internal
__PickedSurf8_E3, E3
__PickedSurf8_E2, E2
*Elset, elset=__PickedSurf10_E3, internal, instance=plaque-1
 140, 141, 214
*Elset, elset=__PickedSurf10_E4, internal, instance=plaque-1
 211,
*Elset, elset=__PickedSurf10_E1, internal, instance=plaque-1
 229, 240
*Elset, elset=__PickedSurf10_E2, internal, instance=plaque-1
 230, 244
*Surface, type=ELEMENT, name=_PickedSurf10, internal
__PickedSurf10_E3, E3
__PickedSurf10_E4, E4
__PickedSurf10_E2, E2
__PickedSurf10_E1, E1
*Elset, elset=__PickedSurf12_E3, internal, instance=plaque-1
 125, 126, 137
*Elset, elset=__PickedSurf12_E1, internal, instance=plaque-1
 162, 232
*Elset, elset=__PickedSurf12_E2, internal, instance=plaque-1
 231, 234, 252
*Surface, type=ELEMENT, name=_PickedSurf12, internal
__PickedSurf12_E3, E3
__PickedSurf12_E1, E1
__PickedSurf12_E2, E2
*Elset, elset=__PickedSurf14_E3, internal, instance=plaque-1
 146, 154, 158
*Elset, elset=__PickedSurf14_E2, internal, instance=plaque-1
 160, 246, 250
*Elset, elset=__PickedSurf14_E4, internal, instance=plaque-1
 203,
*Elset, elset=__PickedSurf14_E1, internal, instance=plaque-1
 223,
*Surface, type=ELEMENT, name=_PickedSurf14, internal
__PickedSurf14_E3, E3
__PickedSurf14_E2, E2
__PickedSurf14_E4, E4
__PickedSurf14_E1, E1
** Constraint: Constraint-1
*Coupling, constraint name=Constraint-1, ref node=_PickedSet9, surface=_PickedSurf8
*Kinematic
** Constraint: Constraint-2
*Coupling, constraint name=Constraint-2, ref node=_PickedSet11, surface=_PickedSurf10
*Kinematic
** Constraint: Constraint-3
*Coupling, constraint name=Constraint-3, ref node=_PickedSet13, surface=_PickedSurf12
*Kinematic
** Constraint: Constraint-4
*Coupling, constraint name=Constraint-4, ref node=_PickedSet15, surface=_PickedSurf14
*Kinematic
*End Assembly
** 
** MATERIALS
** 
*Material, name=acier
*Density
 7.86e-09,
*Elastic
210000., 0.26
** ----------------------------------------------------------------
** 
** STEP: analyse_modale
** 
*Step, name=analyse_modale, nlgeom=NO, perturbation
*Frequency, eigensolver=Lanczos, sim, acoustic coupling=on, normalization=mass
, , 500., , , 
** 
** BOUNDARY CONDITIONS
** 
** Name: blocage Type: Symmetry/Antisymmetry/Encastre
*Boundary
_PickedSet16, ENCASTRE
** 
** OUTPUT REQUESTS
** 
*Restart, write, frequency=0
** 
** FIELD OUTPUT: F-Output-1
** 
*Output, field
*Node Output, variable=PRESELECT
** 
** HISTORY OUTPUT: H-Output-1
** 
*Output, history
*Energy Output, variable=ALL
*End Step
