*Heading
** Job name: vibration Model name: Model-1
** Generated by: Abaqus/CAE 2025
*Preprint, echo=NO, model=NO, history=NO, contact=NO
**
** PARTS
**
*Part, name=plaque
*Node
      1,   306.097168,   93.9028473,           0.
      2,   304.925568,   91.0744171,           0.
      3,   306.097168,   88.2459946,           0.
      4,   308.925568,   87.0744171,           0.
      5,   311.753998,   88.2459946,           0.
      6,   312.925568,   91.0744171,           0.
      7,   311.753998,   93.9028473,           0.
      8,   308.925568,   95.0744171,           0.
      9,   88.2459946,   93.9028473,           0.
     10,   87.0744171,   91.0744171,           0.
     11,   88.2459946,   88.2459946,           0.
     12,   91.0744171,   87.0744171,           0.
     13,   93.9028473,   88.2459946,           0.
     14,   95.0744171,   91.0744171,           0.
     15,   93.9028473,   93.9028473,           0.
     16,   91.0744171,   95.0744171,           0.
     17,   93.9028473,   306.097168,           0.
     18,   95.0744171,   308.925568,           0.
     19,   93.9028473,   311.753998,           0.
     20,   91.0744171,   312.925568,           0.
** ... 3278 like lines cut
*Element, type=S3
  1,  600,  606,  556
  2,  239,  174,  179
  3,  205,  137,  166
  4,  194,  300,  224
  5, 2844,  483,  486
  6,  116,  217,  154
  7,  493,  333,  372
  8,  268,  204,  234
  9, 2841,  344,  272
 10,  431,  324,  361
 11,  376,  488,  334
 12,  394, 2876, 2878
 13,  297, 2913,  428
 14, 2891,  498,  554
 15,  671,  555,  607
 16,  438,  336,  382
 17,  491,  595,  413
 18,  604,  547,  355
 19,  388,  533,  447
 20,  646, 2942,  767
** ... 86 like lines cut
*Element, type=S4R
 107,  191,  217,  299,  254
 108,  228,  264,  319,  293
 109,  116,    5,  134,  161
 110,  135,    3,  117,  165
 111,  117,    3,    2,  152
 112,  298,  259,  164,  266
 113,  122,   11,  123,  164
 114, 2766, 2780, 2772, 2701
 115,    9,  115,  151,  124
 116,  115,    9,   16,  149
 117, 2799,  170,  137,  205
 118,   23,   22,  170,  148
 119,  226,  197,  252,  325
 120,   15,  125,  147,  139
 121, 2802,  145,  113,  176
 122,  178,  128,  156,  221
 123,  118,  152,    2,    1
 124,    1,  113,  145,  118
 125,  126,  158,   14,   13
 126,  122,  160,   12,   11
** ... 3172 like lines cut
*Nset, nset=_PickedSet2, internal, generate
    1,  3298,     1
*Elset, elset=_PickedSet2, internal, generate
    1,  3298,     1
** Section: tole
*Shell Section, elset=_PickedSet2, material=acier
0.5, 5
*End Part
**  
**
** ASSEMBLY
**
*Assembly, name=Assembly
**  
*Instance, name=plaque-1, part=plaque
*End Instance
**  
*Node
      1,   91.0744171,   308.925568,           0.
*Node
      2,   91.0744171,   91.0744171,           0.
*Node
      3,   308.925568,   91.0744171,           0.
*Node
      4,   308.925568,   308.925568,           0.
*Nset, nset=_PickedSet9, internal
 1,
*Nset, nset=_PickedSet11, internal
 2,
*Nset, nset=_PickedSet13, internal
 3,
*Nset, nset=_PickedSet15, internal
 4,
*Nset, nset=_PickedSet16, internal, generate
 1,  4,  1
*Elset, elset=__PickedSurf8_E1, internal, instance=plaque-1
 118, 233
*Elset, elset=__PickedSurf8_E3, internal, instance=plaque-1
 132, 205
*Elset, elset=__PickedSurf8_E4, internal, instance=plaque-1
 179, 202
*Elset, elset=__PickedSurf8_E2, internal, instance=plaque-1
 216, 231
*Surface, type=ELEMENT, name=_PickedSurf8, internal
__PickedSurf8_E1, E1
__PickedSurf8_E3, E3
__PickedSurf8_E4, E4
__PickedSurf8_E2, E2
*Elset, elset=__PickedSurf10_E2, internal, instance=plaque-1
 116, 218, 220, 221
*Elset, elset=__PickedSurf10_E3, internal, instance=plaque-1
 125, 126, 197
*Elset, elset=__PickedSurf10_E1, internal, instance=plaque-1
 211,
*Surface, type=ELEMENT, name=_PickedSurf10, internal
__PickedSurf10_E2, E2
__PickedSurf10_E3, E3
__PickedSurf10_E1, E1
*Elset, elset=__PickedSurf12_E2, internal, instance=plaque-1
 111, 207, 212
*Elset, elset=__PickedSurf12_E3, internal, instance=plaque-1
 123, 127, 153
*Elset, elset=__PickedSurf12_E4, internal, instance=plaque-1
 173,
*Elset, elset=__PickedSurf12_E1, internal, instance=plaque-1
 208,
*Surface, type=ELEMENT, name=_PickedSurf12, internal
__PickedSurf12_E2, E2
__PickedSurf12_E3, E3
__PickedSurf12_E4, E4
__PickedSurf12_E1, E1
*Elset, elset=__PickedSurf14_E3, internal, instance=plaque-1
 130, 142, 145, 146
*Elset, elset=__PickedSurf14_E2, internal, instance=plaque-1
 209, 224, 226, 228
*Surface, type=ELEMENT, name=_PickedSurf14, internal
__PickedSurf14_E3, E3
__PickedSurf14_E2, E2
** Constraint: Constraint-1
*Coupling, constraint name=Constraint-1, ref node=_PickedSet9, surface=_PickedSurf8
*Kinematic
** Constraint: Constraint-2
*Coupling, constraint name=Constraint-2, ref node=_PickedSet11, surface=_PickedSurf10
*Kinematic
** Constraint: Constraint-3
*Coupling, constraint name=Constraint-3, ref node=_PickedSet13, surface=_PickedSurf12
*Kinematic
** Constraint: Constraint-4
*Coupling, constraint name=Constraint-4, ref node=_PickedSet15, surface=_PickedSurf14
*Kinematic
*End Assembly
** 
** MATERIALS
** 
*Material, name=acier
*Density
 7.86e-09,
*Elastic
210000., 0.26
** ----------------------------------------------------------------
** 
** STEP: analyse_modale
** 
*Step, name=analyse_modale, nlgeom=NO, perturbation
*Frequency, eigensolver=Lanczos, sim, acoustic coupling=on, normalization=mass
, , 500., , , 
** 
** BOUNDARY CONDITIONS
** 
** Name: blocage Type: Symmetry/Antisymmetry/Encastre
*Boundary
_PickedSet16, ENCASTRE
** 
** OUTPUT REQUESTS
** 
*Restart, write, frequency=0
** 
** FIELD OUTPUT: F-Output-1
** 
*Output, field
*Node Output, variable=PRESELECT
** 
** HISTORY OUTPUT: H-Output-1
** 
*Output, history
*Energy Output, variable=ALL
*End Step
