*Heading
** Job name: vibration Model name: Model-1
** Generated by: Abaqus/CAE 2025
*Preprint, echo=NO, model=NO, history=NO, contact=NO
**
** PARTS
**
*Part, name=plaque
*Node
      1,   230.062012,   169.937988,           0.
      2,   228.890442,   167.109558,           0.
      3,   230.062012,   164.281128,           0.
      4,   232.890442,   163.109558,           0.
      5,   235.718872,   164.281128,           0.
      6,   236.890442,   167.109558,           0.
      7,   235.718872,   169.937988,           0.
      8,   232.890442,   171.109558,           0.
      9,   164.281128,   169.937988,           0.
     10,   163.109558,   167.109558,           0.
     11,   164.281128,   164.281128,           0.
     12,   167.109558,   163.109558,           0.
     13,   169.937988,   164.281128,           0.
     14,   171.109558,   167.109558,           0.
     15,   169.937988,   169.937988,           0.
     16,   167.109558,   171.109558,           0.
     17,   169.937988,   230.062012,           0.
     18,   171.109558,   232.890442,           0.
     19,   169.937988,   235.718872,           0.
     20,   167.109558,   236.890442,           0.
** ... 2123 like lines cut
*Element, type=S3
 1,  225,  142,  159
 2,  518, 1928,  495
 3,  555,  363,  482
 4,  259,  191,  241
 5,  268,  197,  228
 6, 1343, 1342, 1308
 7,  519,  389,  467
 8,  610, 1944,  358
 9, 1953,  477,  346
10, 1985,  654,  515
11,  507,  448,  402
12, 1983,  625,  487
13,  688,  539,  625
14, 1112,  951, 1032
15,  789,  668, 2017
16,  766,  680,  602
17,  877,  781,  698
18,  916, 2006,  731
19, 1267, 1157, 1226
20, 2056,  908,  999
** ... 50 like lines cut
*Element, type=S4R
  71,  117,  197, 1892,  173
  72,  267,  475,  303,  268
  73,  118,  160,    5,    4
  74,  267,  200,  234,  357
  75,   13,  125,  148,  124
  76,  119,  162,   11,   10
  77,  199,  232, 1913,  266
  78,   94, 1836, 1772,   95
  79,   10,  120,  169,  119
  80,  194,  140,   16,  158
  81,   23,   22,  121,  157
  82,  113,  158,   16,   15
  83,  122,   15,   14,  153
  84,  181,  122,  153,  208
  85,  448,  578,  378, 1956
  86,   15,  122,  144,  113
  87,  114,  149,    1,    8
  88,  124,  153,   14,   13
  89,  171,   12,   11,  162
  90,  128,  154, 1897,  195
** ... 2035 like lines cut
*Nset, nset=_PickedSet2, internal, generate
    1,  2143,     1
*Elset, elset=_PickedSet2, internal, generate
    1,  2125,     1
** Section: tole
*Shell Section, elset=_PickedSet2, material=acier
0.5, 5
*End Part
**  
**
** ASSEMBLY
**
*Assembly, name=Assembly
**  
*Instance, name=plaque-1, part=plaque
*End Instance
**  
*Node
      1,   167.109558,   232.890442,           0.
*Node
      2,   167.109558,   167.109558,           0.
*Node
      3,   232.890442,   167.109558,           0.
*Node
      4,   232.890442,   232.890442,           0.
*Nset, nset=_PickedSet9, internal
 1,
*Nset, nset=_PickedSet11, internal
 2,
*Nset, nset=_PickedSet13, internal
 3,
*Nset, nset=_PickedSet15, internal
 4,
*Nset, nset=_PickedSet16, internal, generate
 1,  4,  1
*Elset, elset=__PickedSurf8_E1, internal, instance=plaque-1
  81, 195
*Elset, elset=__PickedSurf8_E3, internal, instance=plaque-1
 100, 104, 192
*Elset, elset=__PickedSurf8_E4, internal, instance=plaque-1
 165,
*Elset, elset=__PickedSurf8_E2, internal, instance=plaque-1
 172, 199
*Surface, type=ELEMENT, name=_PickedSurf8, internal
__PickedSurf8_E1, E1
__PickedSurf8_E3, E3
__PickedSurf8_E4, E4
__PickedSurf8_E2, E2
*Elset, elset=__PickedSurf10_E3, internal, instance=plaque-1
  76,  82,  88, 101
*Elset, elset=__PickedSurf10_E2, internal, instance=plaque-1
  83,  89, 176, 183
*Surface, type=ELEMENT, name=_PickedSurf10, internal
__PickedSurf10_E3, E3
__PickedSurf10_E2, E2
*Elset, elset=__PickedSurf12_E3, internal, instance=plaque-1
  73,  87, 113, 184
*Elset, elset=__PickedSurf12_E2, internal, instance=plaque-1
 171, 174, 175, 181
*Surface, type=ELEMENT, name=_PickedSurf12, internal
__PickedSurf12_E3, E3
__PickedSurf12_E2, E2
*Elset, elset=__PickedSurf14_E3, internal, instance=plaque-1
  94, 106, 107, 110
*Elset, elset=__PickedSurf14_E2, internal, instance=plaque-1
 173, 187, 190, 193
*Surface, type=ELEMENT, name=_PickedSurf14, internal
__PickedSurf14_E3, E3
__PickedSurf14_E2, E2
** Constraint: Constraint-1
*Coupling, constraint name=Constraint-1, ref node=_PickedSet9, surface=_PickedSurf8
*Kinematic
** Constraint: Constraint-2
*Coupling, constraint name=Constraint-2, ref node=_PickedSet11, surface=_PickedSurf10
*Kinematic
** Constraint: Constraint-3
*Coupling, constraint name=Constraint-3, ref node=_PickedSet13, surface=_PickedSurf12
*Kinematic
** Constraint: Constraint-4
*Coupling, constraint name=Constraint-4, ref node=_PickedSet15, surface=_PickedSurf14
*Kinematic
*End Assembly
** 
** MATERIALS
** 
*Material, name=acier
*Density
 7.86e-09,
*Elastic
210000., 0.26
** ----------------------------------------------------------------
** 
** STEP: analyse_modale
** 
*Step, name=analyse_modale, nlgeom=NO, perturbation
*Frequency, eigensolver=Lanczos, sim, acoustic coupling=on, normalization=mass
, , 500., , , 
** 
** BOUNDARY CONDITIONS
** 
** Name: blocage Type: Symmetry/Antisymmetry/Encastre
*Boundary
_PickedSet16, ENCASTRE
** 
** OUTPUT REQUESTS
** 
*Restart, write, frequency=0
** 
** FIELD OUTPUT: F-Output-1
** 
*Output, field
*Node Output, variable=PRESELECT
** 
** HISTORY OUTPUT: H-Output-1
** 
*Output, history
*Energy Output, variable=ALL
*End Step
