*Heading
** Job name: vibration Model name: Model-1
** Generated by: Abaqus/CAE 2025
*Preprint, echo=NO, model=NO, history=NO, contact=NO
**
** PARTS
**
*Part, name=plaque
*Node
      1,   232.678299,   167.321701,           0.
      2,   231.506729,   164.493271,           0.
      3,   232.678299,   161.664841,           0.
      4,   235.506729,   160.493271,           0.
      5,   238.335159,   161.664841,           0.
      6,   239.506729,   164.493271,           0.
      7,   238.335159,   167.321701,           0.
      8,   235.506729,   168.493271,           0.
      9,   161.664841,   167.321701,           0.
     10,   160.493271,   164.493271,           0.
     11,   161.664841,   161.664841,           0.
     12,   164.493271,   160.493271,           0.
     13,   167.321701,   161.664841,           0.
     14,   168.493271,   164.493271,           0.
     15,   167.321701,   167.321701,           0.
     16,   164.493271,   168.493271,           0.
     17,   167.321701,   232.678299,           0.
     18,   168.493271,   235.506729,           0.
     19,   167.321701,   238.335159,           0.
     20,   164.493271,   239.506729,           0.
** ... 2243 like lines cut
*Element, type=S3
 1,  716,  515,  640
 2,  313,  201,  235
 3,  213,  115,  145
 4, 1942,  189,  241
 5,  639, 1948,  489
 6,  266,  198,  233
 7,  747,  592,  671
 8, 1984,  616,  463
 9, 2207, 2151, 1079
10,  710, 2000,  639
11,  638,  467,  488
12,  798, 2043,  631
13,  659,  532,  583
14,  668,  742,  546
15, 2072,  937,  766
16,  769, 1042,  950
17,  869,  789,  703
18, 1014, 1008,  820
19, 2161,  867,  963
20, 2236, 1329, 1296
** ... 54 like lines cut
*Element, type=S4R
  75,  245,  191,  228,  329
  76,  198,  117,  167,  233
  77,  118,  167,    5,    4
  78,  266,  469,  308, 1960
  79,  247, 1935,  237, 1944
  80,    3,    2,  128,  171
  81,  232,  271,  197,  169
  82,  121,  169,   11,   10
  83,  625,  561,  699,  785
  84, 1715, 1924, 1823, 1876
  85,  194,  139,   16,  156
  86,  172,  222,  204,  122
  87,   10,  122,  163,  121
  88,    9,   16,  139,  172
  89,  113,  156,   16,   15
  90,  124,   15,   14,  147
  91,  180,  124,  147,  207
  92,  494, 2015,  569,  653
  93,   15,  124,  143,  113
  94,  114,  151,    1,    8
** ... 2153 like lines cut
*Nset, nset=_PickedSet2, internal, generate
    1,  2263,     1
*Elset, elset=_PickedSet2, internal, generate
    1,  2247,     1
** Section: tole
*Shell Section, elset=_PickedSet2, material=acier
0.5, 5
*End Part
**  
**
** ASSEMBLY
**
*Assembly, name=Assembly
**  
*Instance, name=plaque-1, part=plaque
*End Instance
**  
*Node
      1,   164.493271,   235.506729,           0.
*Node
      2,   164.493271,   164.493271,           0.
*Node
      3,   235.506729,   164.493271,           0.
*Node
      4,   235.506729,   235.506729,           0.
*Nset, nset=_PickedSet9, internal
 1,
*Nset, nset=_PickedSet11, internal
 2,
*Nset, nset=_PickedSet13, internal
 3,
*Nset, nset=_PickedSet15, internal
 4,
*Nset, nset=_PickedSet16, internal, generate
 1,  4,  1
*Elset, elset=__PickedSurf8_E1, internal, instance=plaque-1
 106,
*Elset, elset=__PickedSurf8_E3, internal, instance=plaque-1
 109, 111, 176
*Elset, elset=__PickedSurf8_E4, internal, instance=plaque-1
 171,
*Elset, elset=__PickedSurf8_E2, internal, instance=plaque-1
 178, 201, 205
*Surface, type=ELEMENT, name=_PickedSurf8, internal
__PickedSurf8_E1, E1
__PickedSurf8_E3, E3
__PickedSurf8_E4, E4
__PickedSurf8_E2, E2
*Elset, elset=__PickedSurf10_E3, internal, instance=plaque-1
  82,  89,  95, 183
*Elset, elset=__PickedSurf10_E1, internal, instance=plaque-1
 88,
*Elset, elset=__PickedSurf10_E2, internal, instance=plaque-1
  90, 185, 192
*Surface, type=ELEMENT, name=_PickedSurf10, internal
__PickedSurf10_E3, E3
__PickedSurf10_E1, E1
__PickedSurf10_E2, E2
*Elset, elset=__PickedSurf12_E3, internal, instance=plaque-1
  77,  94, 120
*Elset, elset=__PickedSurf12_E1, internal, instance=plaque-1
 80,
*Elset, elset=__PickedSurf12_E2, internal, instance=plaque-1
 177, 180, 181, 190
*Surface, type=ELEMENT, name=_PickedSurf12, internal
__PickedSurf12_E3, E3
__PickedSurf12_E1, E1
__PickedSurf12_E2, E2
*Elset, elset=__PickedSurf14_E1, internal, instance=plaque-1
 99,
*Elset, elset=__PickedSurf14_E3, internal, instance=plaque-1
 102, 115, 118
*Elset, elset=__PickedSurf14_E2, internal, instance=plaque-1
 105, 179, 197, 209
*Surface, type=ELEMENT, name=_PickedSurf14, internal
__PickedSurf14_E1, E1
__PickedSurf14_E3, E3
__PickedSurf14_E2, E2
** Constraint: Constraint-1
*Coupling, constraint name=Constraint-1, ref node=_PickedSet9, surface=_PickedSurf8
*Kinematic
** Constraint: Constraint-2
*Coupling, constraint name=Constraint-2, ref node=_PickedSet11, surface=_PickedSurf10
*Kinematic
** Constraint: Constraint-3
*Coupling, constraint name=Constraint-3, ref node=_PickedSet13, surface=_PickedSurf12
*Kinematic
** Constraint: Constraint-4
*Coupling, constraint name=Constraint-4, ref node=_PickedSet15, surface=_PickedSurf14
*Kinematic
*End Assembly
** 
** MATERIALS
** 
*Material, name=acier
*Density
 7.86e-09,
*Elastic
210000., 0.26
** ----------------------------------------------------------------
** 
** STEP: analyse_modale
** 
*Step, name=analyse_modale, nlgeom=NO, perturbation
*Frequency, eigensolver=Lanczos, sim, acoustic coupling=on, normalization=mass
, , 500., , , 
** 
** BOUNDARY CONDITIONS
** 
** Name: blocage Type: Symmetry/Antisymmetry/Encastre
*Boundary
_PickedSet16, ENCASTRE
** 
** OUTPUT REQUESTS
** 
*Restart, write, frequency=0
** 
** FIELD OUTPUT: F-Output-1
** 
*Output, field
*Node Output, variable=PRESELECT
** 
** HISTORY OUTPUT: H-Output-1
** 
*Output, history
*Energy Output, variable=ALL
*End Step
