*Heading
** Job name: vibration Model name: Model-1
** Generated by: Abaqus/CAE 2025
*Preprint, echo=NO, model=NO, history=NO, contact=NO
**
** PARTS
**
*Part, name=plaque
*Node
      1,   305.060089,   94.9399033,           0.
      2,   303.888519,   92.1114731,           0.
      3,   305.060089,   89.2830505,           0.
      4,   307.888519,   88.1114731,           0.
      5,   310.716949,   89.2830505,           0.
      6,   311.888519,   92.1114731,           0.
      7,   310.716949,   94.9399033,           0.
      8,   307.888519,   96.1114731,           0.
      9,   89.2830505,   94.9399033,           0.
     10,   88.1114731,   92.1114731,           0.
     11,   89.2830505,   89.2830505,           0.
     12,   92.1114731,   88.1114731,           0.
     13,   94.9399033,   89.2830505,           0.
     14,   96.1114731,   92.1114731,           0.
     15,   94.9399033,   94.9399033,           0.
     16,   92.1114731,   96.1114731,           0.
     17,   94.9399033,   305.060089,           0.
     18,   96.1114731,   307.888519,           0.
     19,   94.9399033,   310.716949,           0.
     20,   92.1114731,   311.888519,           0.
** ... 3296 like lines cut
*Element, type=S3
  1,  200,  301,  231
  2,  289, 2829,  219
  3,  199,  228,  156
  4,  199,  303,  228
  5, 2829,  318,  261
  6,  269,  323,  300
  7,  418, 2891,  498
  8, 2846,  383,  303
  9,  546,  441,  439
 10,  679,  562,  499
 11,  394, 2879, 2883
 12,  496, 2858,  369
 13,  417,  332,  381
 14,  602,  478,  544
 15, 2853,  388,  339
 16, 2963,  595,  532
 17,  487,  322,  431
 18, 2848,  382,  336
 19,  629,  506,  508
 20,  527,  583,  446
** ... 90 like lines cut
*Element, type=S4R
 111,  153,  220,  193,  121
 112,  116,    5,  134,  162
 113,  117,  167,  135,    3
 114,  117,    3,    2,  154
 115,  165,  234,  201,  122
 116,  122,   11,  123,  165
 117, 2794, 2782, 2796, 2786
 118,    9,  115,  152,  124
 119,  115,    9,   16,  150
 120,  166,  206, 2810,  137
 121,  139,  149,   23,   22
 122,  644,  687,  581, 2874
 123,   15,  125,  148,  141
 124, 2820,  146,  113,  177
 125,  179,  128,  158,  224
 126,  118,  154,    2,    1
 127,    1,  113,  146,  118
 128,  126,  159,   14,   13
 129,  126,   13,  127,  163
 130,    6,  153,  121,    7
** ... 3188 like lines cut
*Nset, nset=_PickedSet2, internal, generate
    1,  3316,     1
*Elset, elset=_PickedSet2, internal, generate
    1,  3318,     1
** Section: tole
*Shell Section, elset=_PickedSet2, material=acier
0.5, 5
*End Part
**  
**
** ASSEMBLY
**
*Assembly, name=Assembly
**  
*Instance, name=plaque-1, part=plaque
*End Instance
**  
*Node
      1,   92.1114731,   307.888519,           0.
*Node
      2,   92.1114731,   92.1114731,           0.
*Node
      3,   307.888519,   92.1114731,           0.
*Node
      4,   307.888519,   307.888519,           0.
*Nset, nset=_PickedSet9, internal
 1,
*Nset, nset=_PickedSet11, internal
 2,
*Nset, nset=_PickedSet13, internal
 3,
*Nset, nset=_PickedSet15, internal
 4,
*Nset, nset=_PickedSet16, internal, generate
 1,  4,  1
*Elset, elset=__PickedSurf8_E3, internal, instance=plaque-1
 121, 134
*Elset, elset=__PickedSurf8_E4, internal, instance=plaque-1
 185, 210
*Elset, elset=__PickedSurf8_E2, internal, instance=plaque-1
 225, 242, 244
*Elset, elset=__PickedSurf8_E1, internal, instance=plaque-1
 245,
*Surface, type=ELEMENT, name=_PickedSurf8, internal
__PickedSurf8_E3, E3
__PickedSurf8_E4, E4
__PickedSurf8_E2, E2
__PickedSurf8_E1, E1
*Elset, elset=__PickedSurf10_E2, internal, instance=plaque-1
 119, 227, 230, 231
*Elset, elset=__PickedSurf10_E3, internal, instance=plaque-1
 128, 163, 204
*Elset, elset=__PickedSurf10_E1, internal, instance=plaque-1
 220,
*Surface, type=ELEMENT, name=_PickedSurf10, internal
__PickedSurf10_E2, E2
__PickedSurf10_E3, E3
__PickedSurf10_E1, E1
*Elset, elset=__PickedSurf12_E2, internal, instance=plaque-1
 114, 216, 221
*Elset, elset=__PickedSurf12_E3, internal, instance=plaque-1
 126, 155, 177
*Elset, elset=__PickedSurf12_E4, internal, instance=plaque-1
 130,
*Elset, elset=__PickedSurf12_E1, internal, instance=plaque-1
 217,
*Surface, type=ELEMENT, name=_PickedSurf12, internal
__PickedSurf12_E2, E2
__PickedSurf12_E3, E3
__PickedSurf12_E4, E4
__PickedSurf12_E1, E1
*Elset, elset=__PickedSurf14_E3, internal, instance=plaque-1
 132, 147, 148, 196
*Elset, elset=__PickedSurf14_E4, internal, instance=plaque-1
 133,
*Elset, elset=__PickedSurf14_E2, internal, instance=plaque-1
 218, 236, 237
*Surface, type=ELEMENT, name=_PickedSurf14, internal
__PickedSurf14_E3, E3
__PickedSurf14_E4, E4
__PickedSurf14_E2, E2
** Constraint: Constraint-1
*Coupling, constraint name=Constraint-1, ref node=_PickedSet9, surface=_PickedSurf8
*Kinematic
** Constraint: Constraint-2
*Coupling, constraint name=Constraint-2, ref node=_PickedSet11, surface=_PickedSurf10
*Kinematic
** Constraint: Constraint-3
*Coupling, constraint name=Constraint-3, ref node=_PickedSet13, surface=_PickedSurf12
*Kinematic
** Constraint: Constraint-4
*Coupling, constraint name=Constraint-4, ref node=_PickedSet15, surface=_PickedSurf14
*Kinematic
*End Assembly
** 
** MATERIALS
** 
*Material, name=acier
*Density
 7.86e-09,
*Elastic
210000., 0.26
** ----------------------------------------------------------------
** 
** STEP: analyse_modale
** 
*Step, name=analyse_modale, nlgeom=NO, perturbation
*Frequency, eigensolver=Lanczos, sim, acoustic coupling=on, normalization=mass
, , 500., , , 
** 
** BOUNDARY CONDITIONS
** 
** Name: blocage Type: Symmetry/Antisymmetry/Encastre
*Boundary
_PickedSet16, ENCASTRE
** 
** OUTPUT REQUESTS
** 
*Restart, write, frequency=0
** 
** FIELD OUTPUT: F-Output-1
** 
*Output, field
*Node Output, variable=PRESELECT
** 
** HISTORY OUTPUT: H-Output-1
** 
*Output, history
*Energy Output, variable=ALL
*End Step
