*Heading
** Job name: vibration Model name: Model-1
** Generated by: Abaqus/CAE 2025
*Preprint, echo=NO, model=NO, history=NO, contact=NO
**
** PARTS
**
*Part, name=plaque
*Node
      1,   229.918777,   170.081223,           0.
      2,   228.747208,   167.252792,           0.
      3,   229.918777,   164.424362,           0.
      4,   232.747208,   163.252792,           0.
      5,   235.575638,   164.424362,           0.
      6,   236.747208,   167.252792,           0.
      7,   235.575638,   170.081223,           0.
      8,   232.747208,   171.252792,           0.
      9,   164.424362,   170.081223,           0.
     10,   163.252792,   167.252792,           0.
     11,   164.424362,   164.424362,           0.
     12,   167.252792,   163.252792,           0.
     13,   170.081223,   164.424362,           0.
     14,   171.252792,   167.252792,           0.
     15,   170.081223,   170.081223,           0.
     16,   167.252792,   171.252792,           0.
     17,   170.081223,   229.918777,           0.
     18,   171.252792,   232.747208,           0.
     19,   170.081223,   235.575638,           0.
     20,   167.252792,   236.747208,           0.
** ... 2116 like lines cut
*Element, type=S3
 1,  549,  354,  481
 2, 1921,  484,  556
 3,  246,  188,  236
 4, 1893,  373,  318
 5, 1945,  433,  360
 6,  650,  470,  494
 7, 1961, 1074,  909
 8,  937, 2053,  756
 9,  871,  949,  963
10,  785,  621,  704
11,  798,  640,  720
12, 2101, 2063, 1008
13,  596,  835,  748
14,  833,  739,  660
15, 2034,  790,  886
16, 2129, 1164, 1262
17, 2021,  953, 1119
18,  959,  918,  832
19,  962,  869,  948
20, 1128, 1047,  964
** ... 50 like lines cut
*Element, type=S4R
  71,  173,  117,  196,  235
  72,  300,  267,  349,  413
  73,  118,  160,    5,    4
  74,  261,  199,  231,  346
  75,  171,  146,   13,   12
  76,  197, 1855,  119, 1876
  77,  120,  162,   11,   10
  78,  304,  198,  229, 1921
  79, 1621, 1857, 1725, 1735
  80,  113,  174, 1868,  147
  81,    9,  113,  147,  121
  82,  169,  120,  121,  201
  83,  425, 1952,  427,  524
  84,  123,  158,   15,   14
  85,  208,  158,  184,  307
  86,  116,  156,    8,    7
  87,  186,  139,  156,  207
  88,   14,  125,  152,  123
  89,  171,   12,  119, 1855
  90,  153,  222,  128,    2
** ... 2028 like lines cut
*Nset, nset=_PickedSet2, internal, generate
    1,  2136,     1
*Elset, elset=_PickedSet2, internal, generate
    1,  2118,     1
** Section: tole
*Shell Section, elset=_PickedSet2, material=acier
0.5, 5
*End Part
**  
**
** ASSEMBLY
**
*Assembly, name=Assembly
**  
*Instance, name=plaque-1, part=plaque
*End Instance
**  
*Node
      1,   167.252792,   232.747208,           0.
*Node
      2,   167.252792,   167.252792,           0.
*Node
      3,   232.747208,   167.252792,           0.
*Node
      4,   232.747208,   232.747208,           0.
*Nset, nset=_PickedSet9, internal
 1,
*Nset, nset=_PickedSet11, internal
 2,
*Nset, nset=_PickedSet13, internal
 3,
*Nset, nset=_PickedSet15, internal
 4,
*Nset, nset=_PickedSet16, internal, generate
 1,  4,  1
*Elset, elset=__PickedSurf8_E3, internal, instance=plaque-1
  93, 100, 105, 196
*Elset, elset=__PickedSurf8_E4, internal, instance=plaque-1
 172,
*Elset, elset=__PickedSurf8_E2, internal, instance=plaque-1
 180, 199, 202
*Surface, type=ELEMENT, name=_PickedSurf8, internal
__PickedSurf8_E3, E3
__PickedSurf8_E4, E4
__PickedSurf8_E2, E2
*Elset, elset=__PickedSurf10_E3, internal, instance=plaque-1
  75,  77,  84, 166
*Elset, elset=__PickedSurf10_E2, internal, instance=plaque-1
 178, 185, 188
*Elset, elset=__PickedSurf10_E1, internal, instance=plaque-1
 179,
*Surface, type=ELEMENT, name=_PickedSurf10, internal
__PickedSurf10_E3, E3
__PickedSurf10_E2, E2
__PickedSurf10_E1, E1
*Elset, elset=__PickedSurf12_E3, internal, instance=plaque-1
  73,  86,  92, 182, 191
*Elset, elset=__PickedSurf12_E2, internal, instance=plaque-1
 183, 184, 190
*Surface, type=ELEMENT, name=_PickedSurf12, internal
__PickedSurf12_E3, E3
__PickedSurf12_E2, E2
*Elset, elset=__PickedSurf14_E3, internal, instance=plaque-1
  95, 106, 110, 134
*Elset, elset=__PickedSurf14_E2, internal, instance=plaque-1
 112, 195, 197
*Elset, elset=__PickedSurf14_E1, internal, instance=plaque-1
 181,
*Surface, type=ELEMENT, name=_PickedSurf14, internal
__PickedSurf14_E3, E3
__PickedSurf14_E2, E2
__PickedSurf14_E1, E1
** Constraint: Constraint-1
*Coupling, constraint name=Constraint-1, ref node=_PickedSet9, surface=_PickedSurf8
*Kinematic
** Constraint: Constraint-2
*Coupling, constraint name=Constraint-2, ref node=_PickedSet11, surface=_PickedSurf10
*Kinematic
** Constraint: Constraint-3
*Coupling, constraint name=Constraint-3, ref node=_PickedSet13, surface=_PickedSurf12
*Kinematic
** Constraint: Constraint-4
*Coupling, constraint name=Constraint-4, ref node=_PickedSet15, surface=_PickedSurf14
*Kinematic
*End Assembly
** 
** MATERIALS
** 
*Material, name=acier
*Density
 7.86e-09,
*Elastic
210000., 0.26
** ----------------------------------------------------------------
** 
** STEP: analyse_modale
** 
*Step, name=analyse_modale, nlgeom=NO, perturbation
*Frequency, eigensolver=Lanczos, sim, acoustic coupling=on, normalization=mass
, , 500., , , 
** 
** BOUNDARY CONDITIONS
** 
** Name: blocage Type: Symmetry/Antisymmetry/Encastre
*Boundary
_PickedSet16, ENCASTRE
** 
** OUTPUT REQUESTS
** 
*Restart, write, frequency=0
** 
** FIELD OUTPUT: F-Output-1
** 
*Output, field
*Node Output, variable=PRESELECT
** 
** HISTORY OUTPUT: H-Output-1
** 
*Output, history
*Energy Output, variable=ALL
*End Step
