*Heading
** Job name: vibration Model name: Model-1
** Generated by: Abaqus/CAE 2025
*Preprint, echo=NO, model=NO, history=NO, contact=NO
**
** PARTS
**
*Part, name=plaque
*Node
      1,   208.958282,   191.041718,           0.
      2,   207.786697,   188.213303,           0.
      3,   208.958282,   185.384872,           0.
      4,   211.786697,   184.213303,           0.
      5,   214.615128,   185.384872,           0.
      6,   215.786697,   188.213303,           0.
      7,   214.615128,   191.041718,           0.
      8,   211.786697,   192.213303,           0.
      9,   185.384872,   191.041718,           0.
     10,   184.213303,   188.213303,           0.
     11,   185.384872,   185.384872,           0.
     12,   188.213303,   184.213303,           0.
     13,   191.041718,   185.384872,           0.
     14,   192.213303,   188.213303,           0.
     15,   191.041718,   191.041718,           0.
     16,   188.213303,   192.213303,           0.
     17,   191.041718,   208.958282,           0.
     18,   192.213303,   211.786697,           0.
     19,   191.041718,   214.615128,           0.
     20,   188.213303,   215.786697,           0.
** ... 1342 like lines cut
*Element, type=S3
 1,  233,  192,  235
 2,  234,  193,  232
 3,  186,  116,  146
 4,  232,  152,  199
 5,  218,  128,  156
 6,  286,  180,  242
 7,  235,  151,  198
 8,  185,  237,  202
 9,  184,  285,  225
10,  179,  289,  223
11,  263,  273,  298
12,  299, 1158,  276
13,  321,  291,  301
14, 1181,  343, 1186
15, 1195,  393,  334
16,  278,  350,  360
17, 1208,  366,  307
18, 1192,  438,  394
19, 1190,  387,  351
20, 1249,  355,  383
** ... 30 like lines cut
*Element, type=S4R
  51, 1180,  316,  295,  266
  52,  213,  117,  173,  251
  53,  118,  173,    5,    4
  54,  126,  153,   13,   12
  55,  302,  315, 1188, 1176
  56,  120,  175,   11,   10
  57,  246,  282,  216,  168
  58,  837, 1145,  937, 1026
  59,  121,  168,   10,    9
  60,    9,  141,  154,  121
  61,   23,   22,  122,  161
  62,  113,  163,   16,   15
  63,  123,  149,  196,  188
  64,  273, 1162,  201,  262
  65,  149,   14,  125,  194
  66,  123,   15,   14,  149
  67,   12,  119,  170,  126
  68,  252,  158,  177, 1149
  69,  236,  271,  238,  258
  70,  177,  129,  192,  223
** ... 1264 like lines cut
*Nset, nset=_PickedSet2, internal, generate
    1,  1362,     1
*Elset, elset=_PickedSet2, internal, generate
    1,  1334,     1
** Section: tole
*Shell Section, elset=_PickedSet2, material=acier
0.5, 5
*End Part
**  
**
** ASSEMBLY
**
*Assembly, name=Assembly
**  
*Instance, name=plaque-1, part=plaque
*End Instance
**  
*Node
      1,   188.213303,   211.786697,           0.
*Node
      2,   188.213303,   188.213303,           0.
*Node
      3,   211.786697,   188.213303,           0.
*Node
      4,   211.786697,   211.786697,           0.
*Nset, nset=_PickedSet9, internal
 1,
*Nset, nset=_PickedSet11, internal
 2,
*Nset, nset=_PickedSet13, internal
 3,
*Nset, nset=_PickedSet15, internal
 4,
*Nset, nset=_PickedSet16, internal, generate
 1,  4,  1
*Elset, elset=__PickedSurf8_E1, internal, instance=plaque-1
  61, 163
*Elset, elset=__PickedSurf8_E3, internal, instance=plaque-1
 77,
*Elset, elset=__PickedSurf8_E4, internal, instance=plaque-1
 152,
*Elset, elset=__PickedSurf8_E2, internal, instance=plaque-1
 190, 195, 197, 201
*Surface, type=ELEMENT, name=_PickedSurf8, internal
__PickedSurf8_E1, E1
__PickedSurf8_E3, E3
__PickedSurf8_E4, E4
__PickedSurf8_E2, E2
*Elset, elset=__PickedSurf10_E3, internal, instance=plaque-1
 54, 56, 59, 62
*Elset, elset=__PickedSurf10_E2, internal, instance=plaque-1
  66,  78, 170, 178
*Surface, type=ELEMENT, name=_PickedSurf10, internal
__PickedSurf10_E3, E3
__PickedSurf10_E2, E2
*Elset, elset=__PickedSurf12_E3, internal, instance=plaque-1
 53,
*Elset, elset=__PickedSurf12_E1, internal, instance=plaque-1
 161, 198
*Elset, elset=__PickedSurf12_E2, internal, instance=plaque-1
 167, 168, 177, 183, 202
*Surface, type=ELEMENT, name=_PickedSurf12, internal
__PickedSurf12_E3, E3
__PickedSurf12_E1, E1
__PickedSurf12_E2, E2
*Elset, elset=__PickedSurf14_E3, internal, instance=plaque-1
 72, 86, 87
*Elset, elset=__PickedSurf14_E2, internal, instance=plaque-1
  81,  89, 187
*Elset, elset=__PickedSurf14_E4, internal, instance=plaque-1
 135,
*Elset, elset=__PickedSurf14_E1, internal, instance=plaque-1
 165,
*Surface, type=ELEMENT, name=_PickedSurf14, internal
__PickedSurf14_E3, E3
__PickedSurf14_E2, E2
__PickedSurf14_E4, E4
__PickedSurf14_E1, E1
** Constraint: Constraint-1
*Coupling, constraint name=Constraint-1, ref node=_PickedSet9, surface=_PickedSurf8
*Kinematic
** Constraint: Constraint-2
*Coupling, constraint name=Constraint-2, ref node=_PickedSet11, surface=_PickedSurf10
*Kinematic
** Constraint: Constraint-3
*Coupling, constraint name=Constraint-3, ref node=_PickedSet13, surface=_PickedSurf12
*Kinematic
** Constraint: Constraint-4
*Coupling, constraint name=Constraint-4, ref node=_PickedSet15, surface=_PickedSurf14
*Kinematic
*End Assembly
** 
** MATERIALS
** 
*Material, name=acier
*Density
 7.86e-09,
*Elastic
210000., 0.26
** ----------------------------------------------------------------
** 
** STEP: analyse_modale
** 
*Step, name=analyse_modale, nlgeom=NO, perturbation
*Frequency, eigensolver=Lanczos, sim, acoustic coupling=on, normalization=mass
, , 500., , , 
** 
** BOUNDARY CONDITIONS
** 
** Name: blocage Type: Symmetry/Antisymmetry/Encastre
*Boundary
_PickedSet16, ENCASTRE
** 
** OUTPUT REQUESTS
** 
*Restart, write, frequency=0
** 
** FIELD OUTPUT: F-Output-1
** 
*Output, field
*Node Output, variable=PRESELECT
** 
** HISTORY OUTPUT: H-Output-1
** 
*Output, history
*Energy Output, variable=ALL
*End Step
