*Heading
** Job name: vibration Model name: Model-1
** Generated by: Abaqus/CAE 2025
*Preprint, echo=NO, model=NO, history=NO, contact=NO
**
** PARTS
**
*Part, name=plaque
*Node
      1,   362.211243,   37.7887688,           0.
      2,   361.039642,   34.9603424,           0.
      3,   362.211243,    32.131916,           0.
      4,   365.039642,   30.9603424,           0.
      5,   367.868073,    32.131916,           0.
      6,   369.039642,   34.9603424,           0.
      7,   367.868073,   37.7887688,           0.
      8,   365.039642,   38.9603424,           0.
      9,    32.131916,   37.7887688,           0.
     10,   30.9603424,   34.9603424,           0.
     11,    32.131916,    32.131916,           0.
     12,   34.9603424,   30.9603424,           0.
     13,   37.7887688,    32.131916,           0.
     14,   38.9603424,   34.9603424,           0.
     15,   37.7887688,   37.7887688,           0.
     16,   34.9603424,   38.9603424,           0.
     17,   37.7887688,   362.211243,           0.
     18,   38.9603424,   365.039642,           0.
     19,   37.7887688,   367.868073,           0.
     20,   34.9603424,   369.039642,           0.
** ... 795 like lines cut
*Element, type=S3
 1, 189, 179, 160
 2, 129, 189, 160
 3, 713, 125, 155
 4, 144, 182, 727
 5, 189, 129, 152
 6, 116, 192, 130
 7, 132,  22,  21
 8, 731, 117, 147
 9, 718, 728, 140
10, 206,  92,  91
11, 737, 179, 184
12, 212,  73,  72
13, 241, 168, 222
14, 155, 220, 732
15, 255, 260, 253
16, 370, 744, 372
17, 385, 312, 368
18, 776, 508, 470
19, 610, 545, 591
20, 613, 584, 608
** ... 14 like lines cut
*Element, type=S4R
 35, 184, 179, 189, 208
 36,   5, 129, 160,   6
 37,   3, 116, 130,   4
 38, 116,   3,   2, 708
 39,  11,  10, 714, 156
 40, 188, 187, 156, 714
 41, 122,   9,  16, 115
 42, 728, 739, 205, 176
 43, 718,  23,  22, 132
 44, 712, 134,  16,  15
 45, 162, 169, 197, 175
 46, 165, 135, 140, 735
 47, 229, 236, 262, 247
 48,  43, 334, 288,  44
 49,  14,  13, 713, 124
 50, 124, 153, 123,  14
 51, 125,  12, 121, 715
 52, 709,   1, 113, 139
 53, 365, 383, 262, 236
 54, 328, 274, 251, 245
** ... 725 like lines cut
*Nset, nset=_PickedSet2, internal, generate
   1,  815,    1
*Elset, elset=_PickedSet2, internal, generate
   1,  779,    1
** Section: tole
*Shell Section, elset=_PickedSet2, material=acier
0.5, 5
*End Part
**  
**
** ASSEMBLY
**
*Assembly, name=Assembly
**  
*Instance, name=plaque-1, part=plaque
*End Instance
**  
*Node
      1,   34.9603424,   365.039642,           0.
*Node
      2,   34.9603424,   34.9603424,           0.
*Node
      3,   365.039642,   34.9603424,           0.
*Node
      4,   365.039642,   365.039642,           0.
*Nset, nset=_PickedSet9, internal
 1,
*Nset, nset=_PickedSet11, internal
 2,
*Nset, nset=_PickedSet13, internal
 3,
*Nset, nset=_PickedSet15, internal
 4,
*Nset, nset=_PickedSet16, internal, generate
 1,  4,  1
*Elset, elset=__PickedSurf8_E2, internal, instance=plaque-1
   7,  43, 134
*Elset, elset=__PickedSurf8_E4, internal, instance=plaque-1
  60, 120, 151
*Elset, elset=__PickedSurf8_E3, internal, instance=plaque-1
  63, 133
*Surface, type=ELEMENT, name=_PickedSurf8, internal
__PickedSurf8_E2, E2
__PickedSurf8_E4, E4
__PickedSurf8_E3, E3
*Elset, elset=__PickedSurf10_E1, internal, instance=plaque-1
  39,  49, 139, 141
*Elset, elset=__PickedSurf10_E2, internal, instance=plaque-1
  41, 136
*Elset, elset=__PickedSurf10_E3, internal, instance=plaque-1
  44, 112
*Surface, type=ELEMENT, name=_PickedSurf10, internal
__PickedSurf10_E1, E1
__PickedSurf10_E2, E2
__PickedSurf10_E3, E3
*Elset, elset=__PickedSurf12_E4, internal, instance=plaque-1
  36,  37,  98, 130, 157
*Elset, elset=__PickedSurf12_E2, internal, instance=plaque-1
  38, 126, 129
*Surface, type=ELEMENT, name=_PickedSurf12, internal
__PickedSurf12_E4, E4
__PickedSurf12_E2, E2
*Elset, elset=__PickedSurf14_E3, internal, instance=plaque-1
 30, 87
*Elset, elset=__PickedSurf14_E2, internal, instance=plaque-1
 56, 65, 69, 71
*Elset, elset=__PickedSurf14_E1, internal, instance=plaque-1
 67,
*Elset, elset=__PickedSurf14_E4, internal, instance=plaque-1
 127,
*Surface, type=ELEMENT, name=_PickedSurf14, internal
__PickedSurf14_E3, E3
__PickedSurf14_E2, E2
__PickedSurf14_E4, E4
__PickedSurf14_E1, E1
** Constraint: Constraint-1
*Coupling, constraint name=Constraint-1, ref node=_PickedSet9, surface=_PickedSurf8
*Kinematic
** Constraint: Constraint-2
*Coupling, constraint name=Constraint-2, ref node=_PickedSet11, surface=_PickedSurf10
*Kinematic
** Constraint: Constraint-3
*Coupling, constraint name=Constraint-3, ref node=_PickedSet13, surface=_PickedSurf12
*Kinematic
** Constraint: Constraint-4
*Coupling, constraint name=Constraint-4, ref node=_PickedSet15, surface=_PickedSurf14
*Kinematic
*End Assembly
** 
** MATERIALS
** 
*Material, name=acier
*Density
 7.86e-09,
*Elastic
210000., 0.26
** ----------------------------------------------------------------
** 
** STEP: analyse_modale
** 
*Step, name=analyse_modale, nlgeom=NO, perturbation
*Frequency, eigensolver=Lanczos, sim, acoustic coupling=on, normalization=mass
, , 500., , , 
** 
** BOUNDARY CONDITIONS
** 
** Name: blocage Type: Symmetry/Antisymmetry/Encastre
*Boundary
_PickedSet16, ENCASTRE
** 
** OUTPUT REQUESTS
** 
*Restart, write, frequency=0
** 
** FIELD OUTPUT: F-Output-1
** 
*Output, field
*Node Output, variable=PRESELECT
** 
** HISTORY OUTPUT: H-Output-1
** 
*Output, history
*Energy Output, variable=ALL
*End Step
