*Heading
** Job name: vibration Model name: Model-1
** Generated by: Abaqus/CAE 2025
*Preprint, echo=NO, model=NO, history=NO, contact=NO
**
** PARTS
**
*Part, name=plaque
*Node
      1,   247.266739,   152.733261,           0.
      2,   246.095169,   149.904831,           0.
      3,   247.266739,   147.076401,           0.
      4,   250.095169,   145.904831,           0.
      5,   252.923599,   147.076401,           0.
      6,   254.095169,   149.904831,           0.
      7,   252.923599,   152.733261,           0.
      8,   250.095169,   153.904831,           0.
      9,   147.076401,   152.733261,           0.
     10,   145.904831,   149.904831,           0.
     11,   147.076401,   147.076401,           0.
     12,   149.904831,   145.904831,           0.
     13,   152.733261,   147.076401,           0.
     14,   153.904831,   149.904831,           0.
     15,   152.733261,   152.733261,           0.
     16,   149.904831,   153.904831,           0.
     17,   152.733261,   247.266739,           0.
     18,   153.904831,   250.095169,           0.
     19,   152.733261,   252.923599,           0.
     20,   149.904831,   254.095169,           0.
** ... 2791 like lines cut
*Element, type=S3
  1,  261,  196,  219
  2, 2425,  229,  356
  3,  239,  206,  179
  4,  302,  414,  344
  5, 2496,  619,  454
  6,  618,  458, 2515
  7,  425,  312,  395
  8,  304,  308,  238
  9, 2474,  531,  431
 10, 2479,  542,  456
 11,  715,  962,  794
 12, 2616,  796,  881
 13, 1075,  889,  972
 14,  592,  697,  444
 15,  634,  711,  464
 16,  768,  585,  670
 17,  699,  788,  513
 18, 2534,  838,  662
 19, 1042,  855,  835
 20,  878,  698,  783
** ... 86 like lines cut
*Element, type=S4R
 107,  331, 2474,  263, 2462
 108,  118,  161,    5,    4
 109,  120,  163, 2423,  224
 110,  119,  167,    4,    3
 111,  781,  608,  689, 2525
 112, 2423,  163,   11,   10
 113, 2236, 2410, 2339, 2378
 114,    9,  113,  158,  121
 115, 2438,  218, 2415,  145
 116,  202, 2432, 2456,  266
 117,  122,  145,   23,   22
 118,  564,  640,  737, 2534
 119,  182,  153,   15,   14
 120,  185,  141,  156,  214
 121,  116,  155,    8,    7
 122,  140,  155, 2418,  184
 123,   14,  124,  149,  182
 124,   12,  120,  174,  125
 125,   13,  160,  124,   14
 126,  117,  161,  197, 2427
** ... 2685 like lines cut
*Nset, nset=_PickedSet2, internal, generate
    1,  2811,     1
*Elset, elset=_PickedSet2, internal, generate
    1,  2811,     1
** Section: tole
*Shell Section, elset=_PickedSet2, material=acier
0.5, 5
*End Part
**  
**
** ASSEMBLY
**
*Assembly, name=Assembly
**  
*Instance, name=plaque-1, part=plaque
*End Instance
**  
*Node
      1,   149.904831,   250.095169,           0.
*Node
      2,   149.904831,   149.904831,           0.
*Node
      3,   250.095169,   149.904831,           0.
*Node
      4,   250.095169,   250.095169,           0.
*Nset, nset=_PickedSet9, internal
 1,
*Nset, nset=_PickedSet11, internal
 2,
*Nset, nset=_PickedSet13, internal
 3,
*Nset, nset=_PickedSet15, internal
 4,
*Nset, nset=_PickedSet16, internal, generate
 1,  4,  1
*Elset, elset=__PickedSurf8_E3, internal, instance=plaque-1
 117, 129, 135, 137, 141
*Elset, elset=__PickedSurf8_E4, internal, instance=plaque-1
 208,
*Elset, elset=__PickedSurf8_E2, internal, instance=plaque-1
 237, 241
*Surface, type=ELEMENT, name=_PickedSurf8, internal
__PickedSurf8_E3, E3
__PickedSurf8_E4, E4
__PickedSurf8_E2, E2
*Elset, elset=__PickedSurf10_E3, internal, instance=plaque-1
 112, 119, 158, 204
*Elset, elset=__PickedSurf10_E4, internal, instance=plaque-1
 125,
*Elset, elset=__PickedSurf10_E2, internal, instance=plaque-1
 213, 221, 246
*Surface, type=ELEMENT, name=_PickedSurf10, internal
__PickedSurf10_E3, E3
__PickedSurf10_E4, E4
__PickedSurf10_E2, E2
*Elset, elset=__PickedSurf12_E3, internal, instance=plaque-1
 108, 110, 121, 128
*Elset, elset=__PickedSurf12_E1, internal, instance=plaque-1
 217,
*Elset, elset=__PickedSurf12_E2, internal, instance=plaque-1
 218, 220, 226
*Surface, type=ELEMENT, name=_PickedSurf12, internal
__PickedSurf12_E3, E3
__PickedSurf12_E1, E1
__PickedSurf12_E2, E2
*Elset, elset=__PickedSurf14_E3, internal, instance=plaque-1
 131, 145, 174
*Elset, elset=__PickedSurf14_E2, internal, instance=plaque-1
 147, 232, 234
*Elset, elset=__PickedSurf14_E1, internal, instance=plaque-1
 215, 231
*Surface, type=ELEMENT, name=_PickedSurf14, internal
__PickedSurf14_E3, E3
__PickedSurf14_E2, E2
__PickedSurf14_E1, E1
** Constraint: Constraint-1
*Coupling, constraint name=Constraint-1, ref node=_PickedSet9, surface=_PickedSurf8
*Kinematic
** Constraint: Constraint-2
*Coupling, constraint name=Constraint-2, ref node=_PickedSet11, surface=_PickedSurf10
*Kinematic
** Constraint: Constraint-3
*Coupling, constraint name=Constraint-3, ref node=_PickedSet13, surface=_PickedSurf12
*Kinematic
** Constraint: Constraint-4
*Coupling, constraint name=Constraint-4, ref node=_PickedSet15, surface=_PickedSurf14
*Kinematic
*End Assembly
** 
** MATERIALS
** 
*Material, name=acier
*Density
 7.86e-09,
*Elastic
210000., 0.26
** ----------------------------------------------------------------
** 
** STEP: analyse_modale
** 
*Step, name=analyse_modale, nlgeom=NO, perturbation
*Frequency, eigensolver=Lanczos, sim, acoustic coupling=on, normalization=mass
, , 500., , , 
** 
** BOUNDARY CONDITIONS
** 
** Name: blocage Type: Symmetry/Antisymmetry/Encastre
*Boundary
_PickedSet16, ENCASTRE
** 
** OUTPUT REQUESTS
** 
*Restart, write, frequency=0
** 
** FIELD OUTPUT: F-Output-1
** 
*Output, field
*Node Output, variable=PRESELECT
** 
** HISTORY OUTPUT: H-Output-1
** 
*Output, history
*Energy Output, variable=ALL
*End Step
