*Heading
** Job name: vibration Model name: Model-1
** Generated by: Abaqus/CAE 2025
*Preprint, echo=NO, model=NO, history=NO, contact=NO
**
** PARTS
**
*Part, name=plaque
*Node
      1,   354.840668,   45.1593361,           0.
      2,   353.669098,   42.3309097,           0.
      3,   354.840668,   39.5024834,           0.
      4,   357.669098,   38.3309097,           0.
      5,   360.497528,   39.5024834,           0.
      6,   361.669098,   42.3309097,           0.
      7,   360.497528,   45.1593361,           0.
      8,   357.669098,   46.3309097,           0.
      9,   39.5024834,   45.1593361,           0.
     10,   38.3309097,   42.3309097,           0.
     11,   39.5024834,   39.5024834,           0.
     12,   42.3309097,   38.3309097,           0.
     13,   45.1593361,   39.5024834,           0.
     14,   46.3309097,   42.3309097,           0.
     15,   45.1593361,   45.1593361,           0.
     16,   42.3309097,   46.3309097,           0.
     17,   45.1593361,   354.840668,           0.
     18,   46.3309097,   357.669098,           0.
     19,   45.1593361,   360.497528,           0.
     20,   42.3309097,   361.669098,           0.
** ... 951 like lines cut
*Element, type=S3
 1, 182, 235, 195
 2, 184, 847, 880
 3, 141, 120,   1
 4, 149, 168, 170
 5, 214, 156, 183
 6, 864, 177, 131
 7, 124,  12,  11
 8, 195, 144, 182
 9, 152, 240, 171
10, 193, 139, 145
11, 189, 156, 214
12, 898, 221, 196
13, 198, 224, 172
14, 880, 213, 184
15, 381, 183, 212
16, 428, 868, 214
17, 260,  54,  53
18, 427, 867, 216
19, 153, 245, 222
20, 264, 913, 241
** ... 28 like lines cut
*Element, type=S4R
 49, 146, 185, 213, 880
 50, 481, 213, 185, 385
 51, 134, 158,   5,   4
 52, 848,   3, 119, 850
 53, 197, 227, 850, 119
 54, 155, 194, 157, 129
 55, 124,  11, 125, 856
 56, 856, 125, 156, 189
 57, 117, 882, 164,  16
 58, 137, 145, 139,  22
 59, 115,  24, 116, 142
 60, 117,  16,  15, 852
 61, 257, 901, 248, 269
 62, 222, 245, 251, 252
 63, 225, 170, 201, 259
 64, 852,  15,  14, 127
 65, 844,   8, 114, 846
 66, 127,  14, 128, 855
 67, 129, 157, 854,  13
 68, 168, 120, 141, 877
** ... 874 like lines cut
*Nset, nset=_PickedSet2, internal, generate
   1,  971,    1
*Elset, elset=_PickedSet2, internal, generate
   1,  942,    1
** Section: tole
*Shell Section, elset=_PickedSet2, material=acier
0.5, 5
*End Part
**  
**
** ASSEMBLY
**
*Assembly, name=Assembly
**  
*Instance, name=plaque-1, part=plaque
*End Instance
**  
*Node
      1,   42.3309097,   357.669098,           0.
*Node
      2,   42.3309097,   42.3309097,           0.
*Node
      3,   357.669098,   42.3309097,           0.
*Node
      4,   357.669098,   357.669098,           0.
*Nset, nset=_PickedSet9, internal
 1,
*Nset, nset=_PickedSet11, internal
 2,
*Nset, nset=_PickedSet13, internal
 3,
*Nset, nset=_PickedSet15, internal
 4,
*Nset, nset=_PickedSet16, internal, generate
 1,  4,  1
*Elset, elset=__PickedSurf8_E4, internal, instance=plaque-1
  76, 150
*Elset, elset=__PickedSurf8_E3, internal, instance=plaque-1
 77,
*Elset, elset=__PickedSurf8_E1, internal, instance=plaque-1
  79, 144, 169
*Elset, elset=__PickedSurf8_E2, internal, instance=plaque-1
 151, 172
*Surface, type=ELEMENT, name=_PickedSurf8, internal
__PickedSurf8_E4, E4
__PickedSurf8_E3, E3
__PickedSurf8_E2, E2
__PickedSurf8_E1, E1
*Elset, elset=__PickedSurf10_E2, internal, instance=plaque-1
   7,  60,  64, 153, 154, 155, 157
*Elset, elset=__PickedSurf10_E4, internal, instance=plaque-1
 159,
*Surface, type=ELEMENT, name=_PickedSurf10, internal
__PickedSurf10_E2, E2
__PickedSurf10_E4, E4
*Elset, elset=__PickedSurf12_E3, internal, instance=plaque-1
 51,
*Elset, elset=__PickedSurf12_E4, internal, instance=plaque-1
  88, 142, 143, 147, 148
*Elset, elset=__PickedSurf12_E2, internal, instance=plaque-1
 149, 166
*Surface, type=ELEMENT, name=_PickedSurf12, internal
__PickedSurf12_E3, E3
__PickedSurf12_E4, E4
__PickedSurf12_E2, E2
*Elset, elset=__PickedSurf14_E3, internal, instance=plaque-1
  70,  82, 102
*Elset, elset=__PickedSurf14_E2, internal, instance=plaque-1
  83, 160, 163
*Elset, elset=__PickedSurf14_E1, internal, instance=plaque-1
 141,
*Elset, elset=__PickedSurf14_E4, internal, instance=plaque-1
 161,
*Surface, type=ELEMENT, name=_PickedSurf14, internal
__PickedSurf14_E3, E3
__PickedSurf14_E2, E2
__PickedSurf14_E4, E4
__PickedSurf14_E1, E1
** Constraint: Constraint-1
*Coupling, constraint name=Constraint-1, ref node=_PickedSet9, surface=_PickedSurf8
*Kinematic
** Constraint: Constraint-2
*Coupling, constraint name=Constraint-2, ref node=_PickedSet11, surface=_PickedSurf10
*Kinematic
** Constraint: Constraint-3
*Coupling, constraint name=Constraint-3, ref node=_PickedSet13, surface=_PickedSurf12
*Kinematic
** Constraint: Constraint-4
*Coupling, constraint name=Constraint-4, ref node=_PickedSet15, surface=_PickedSurf14
*Kinematic
*End Assembly
** 
** MATERIALS
** 
*Material, name=acier
*Density
 7.86e-09,
*Elastic
210000., 0.26
** ----------------------------------------------------------------
** 
** STEP: analyse_modale
** 
*Step, name=analyse_modale, nlgeom=NO, perturbation
*Frequency, eigensolver=Lanczos, sim, acoustic coupling=on, normalization=mass
, , 500., , , 
** 
** BOUNDARY CONDITIONS
** 
** Name: blocage Type: Symmetry/Antisymmetry/Encastre
*Boundary
_PickedSet16, ENCASTRE
** 
** OUTPUT REQUESTS
** 
*Restart, write, frequency=0
** 
** FIELD OUTPUT: F-Output-1
** 
*Output, field
*Node Output, variable=PRESELECT
** 
** HISTORY OUTPUT: H-Output-1
** 
*Output, history
*Energy Output, variable=ALL
*End Step
