*Heading
** Job name: vibration Model name: Model-1
** Generated by: Abaqus/CAE 2025
*Preprint, echo=NO, model=NO, history=NO, contact=NO
**
** PARTS
**
*Part, name=plaque
*Node
      1,   318.277954,   81.7220535,           0.
      2,   317.106384,    78.893631,           0.
      3,   318.277954,   76.0652008,           0.
      4,   321.106384,    74.893631,           0.
      5,   323.934784,   76.0652008,           0.
      6,   325.106384,    78.893631,           0.
      7,   323.934784,   81.7220535,           0.
      8,   321.106384,    82.893631,           0.
      9,   76.0652008,   81.7220535,           0.
     10,    74.893631,    78.893631,           0.
     11,   76.0652008,   76.0652008,           0.
     12,    78.893631,    74.893631,           0.
     13,   81.7220535,   76.0652008,           0.
     14,    82.893631,    78.893631,           0.
     15,   81.7220535,   81.7220535,           0.
     16,    78.893631,    82.893631,           0.
     17,   81.7220535,   318.277954,           0.
     18,    82.893631,   321.106384,           0.
     19,   81.7220535,   323.934784,           0.
     20,    78.893631,   325.106384,           0.
** ... 2747 like lines cut
*Element, type=S3
 1,  272,  207,  236
 2,  178,  129,  167
 3,  127,  258,  161
 4, 2468,  349,  483
 5,  367,  233, 2386
 6,  222,  126,  161
 7,  452, 2424,  359
 8, 2508, 2478,  409
 9, 2436,  306,  438
10,  459,  366,  399
11,  442,  394,  364
12,  329,  288,  259
13,  353,  404,  287
14,  388,  323,  360
15,  414,  369,  300
16,  416,  331,  363
17, 2435,  555,  345
18,  346,  387,  315
19, 2517,  667,  618
20, 2510,  554,  501
** ... 76 like lines cut
*Element, type=S4R
  97,  255,  193,  220,  324
  98,  266,  199,  265,  275
  99,  118,    5,  134,  160
 100,    3,  119,  164,  135
 101,  119,    3,    2,  152
 102, 2361,  225,  198,  163
 103,  124,   11,  125,  163
 104, 2381, 2379,  523,  471
 105,  117,  171,   16,   15
 106,  116,   23,  136,  173
 107,  116,  147,   24,   23
 108,  117,  143,  204,  181
 109,  204,  143, 2373, 2378
 110,  114,  172,    8,    7
 111,  120,  144,  179, 2363
 112,  152,    2,  120,  208
 113,  226,  158,  183, 2374
 114,  127,   13,   12,  159
 115,  124,  159,   12,   11
 116,  118,  154,    6,    5
** ... 2646 like lines cut
*Nset, nset=_PickedSet2, internal, generate
    1,  2767,     1
*Elset, elset=_PickedSet2, internal, generate
    1,  2762,     1
** Section: tole
*Shell Section, elset=_PickedSet2, material=acier
0.5, 5
*End Part
**  
**
** ASSEMBLY
**
*Assembly, name=Assembly
**  
*Instance, name=plaque-1, part=plaque
*End Instance
**  
*Node
      1,    78.893631,   321.106384,           0.
*Node
      2,    78.893631,    78.893631,           0.
*Node
      3,   321.106384,    78.893631,           0.
*Node
      4,   321.106384,   321.106384,           0.
*Nset, nset=_PickedSet9, internal
 1,
*Nset, nset=_PickedSet11, internal
 2,
*Nset, nset=_PickedSet13, internal
 3,
*Nset, nset=_PickedSet15, internal
 4,
*Nset, nset=_PickedSet16, internal, generate
 1,  4,  1
*Elset, elset=__PickedSurf8_E3, internal, instance=plaque-1
 107, 122, 193
*Elset, elset=__PickedSurf8_E2, internal, instance=plaque-1
 128, 198, 205
*Elset, elset=__PickedSurf8_E4, internal, instance=plaque-1
 170,
*Elset, elset=__PickedSurf8_E1, internal, instance=plaque-1
 220,
*Surface, type=ELEMENT, name=_PickedSurf8, internal
__PickedSurf8_E3, E3
__PickedSurf8_E2, E2
__PickedSurf8_E4, E4
__PickedSurf8_E1, E1
*Elset, elset=__PickedSurf10_E3, internal, instance=plaque-1
 105, 115, 117
*Elset, elset=__PickedSurf10_E2, internal, instance=plaque-1
 114, 207, 209
*Elset, elset=__PickedSurf10_E4, internal, instance=plaque-1
 145, 186
*Surface, type=ELEMENT, name=_PickedSurf10, internal
__PickedSurf10_E3, E3
__PickedSurf10_E2, E2
__PickedSurf10_E4, E4
*Elset, elset=__PickedSurf12_E2, internal, instance=plaque-1
 101, 136, 200, 202
*Elset, elset=__PickedSurf12_E3, internal, instance=plaque-1
 110, 116, 142
*Elset, elset=__PickedSurf12_E4, internal, instance=plaque-1
 160,
*Surface, type=ELEMENT, name=_PickedSurf12, internal
__PickedSurf12_E2, E2
__PickedSurf12_E3, E3
__PickedSurf12_E4, E4
*Elset, elset=__PickedSurf14_E2, internal, instance=plaque-1
 120, 134, 195, 217
*Elset, elset=__PickedSurf14_E3, internal, instance=plaque-1, generate
 129,  131,    1
*Elset, elset=__PickedSurf14_E4, internal, instance=plaque-1
 133,
*Surface, type=ELEMENT, name=_PickedSurf14, internal
__PickedSurf14_E2, E2
__PickedSurf14_E3, E3
__PickedSurf14_E4, E4
** Constraint: Constraint-1
*Coupling, constraint name=Constraint-1, ref node=_PickedSet9, surface=_PickedSurf8
*Kinematic
** Constraint: Constraint-2
*Coupling, constraint name=Constraint-2, ref node=_PickedSet11, surface=_PickedSurf10
*Kinematic
** Constraint: Constraint-3
*Coupling, constraint name=Constraint-3, ref node=_PickedSet13, surface=_PickedSurf12
*Kinematic
** Constraint: Constraint-4
*Coupling, constraint name=Constraint-4, ref node=_PickedSet15, surface=_PickedSurf14
*Kinematic
*End Assembly
** 
** MATERIALS
** 
*Material, name=acier
*Density
 7.86e-09,
*Elastic
210000., 0.26
** ----------------------------------------------------------------
** 
** STEP: analyse_modale
** 
*Step, name=analyse_modale, nlgeom=NO, perturbation
*Frequency, eigensolver=Lanczos, sim, acoustic coupling=on, normalization=mass
, , 500., , , 
** 
** BOUNDARY CONDITIONS
** 
** Name: blocage Type: Symmetry/Antisymmetry/Encastre
*Boundary
_PickedSet16, ENCASTRE
** 
** OUTPUT REQUESTS
** 
*Restart, write, frequency=0
** 
** FIELD OUTPUT: F-Output-1
** 
*Output, field
*Node Output, variable=PRESELECT
** 
** HISTORY OUTPUT: H-Output-1
** 
*Output, history
*Energy Output, variable=ALL
*End Step
