*Heading
** Job name: vibration Model name: Model-1
** Generated by: Abaqus/CAE 2025
*Preprint, echo=NO, model=NO, history=NO, contact=NO
**
** PARTS
**
*Part, name=plaque
*Node
      1,   343.064728,   56.9352608,           0.
      2,   341.893158,   54.1068344,           0.
      3,   343.064728,   51.2784081,           0.
      4,   345.893158,   50.1068344,           0.
      5,   348.721588,   51.2784081,           0.
      6,   349.893158,   54.1068344,           0.
      7,   348.721588,   56.9352608,           0.
      8,   345.893158,   58.1068344,           0.
      9,   51.2784081,   56.9352608,           0.
     10,   50.1068344,   54.1068344,           0.
     11,   51.2784081,   51.2784081,           0.
     12,   54.1068344,   50.1068344,           0.
     13,   56.9352608,   51.2784081,           0.
     14,   58.1068344,   54.1068344,           0.
     15,   56.9352608,   56.9352608,           0.
     16,   54.1068344,   58.1068344,           0.
     17,   56.9352608,   343.064728,           0.
     18,   58.1068344,   345.893158,           0.
     19,   56.9352608,   348.721588,           0.
     20,   54.1068344,   349.893158,           0.
** ... 1599 like lines cut
*Element, type=S3
 1,  192,  122,  162
 2,  140,  210,  171
 3,  198,  284,  255
 4,  246,  152,  182
 5,  134,  258,  202
 6,  231,  183,  208
 7,  230,  304,  286
 8,  447,  429,  398
 9, 1452,  353,  281
10, 1474,  294,  315
11,  354,  295,  312
12,  372, 1487,  369
13, 1454,  312,  291
14,  275,  372, 1479
15, 1496,  450,  392
16,  546,  483,  514
17,  524,  476,  452
18, 1521, 1535,  511
19,  669,  607,  642
20,  854,  781,  773
** ... 34 like lines cut
*Element, type=S4R
  55,  245,  188,  221,  319
  56,  163,  133,  197,  222
  57,  116,    5,  133,  163
  58, 1409,  134,    4,    3
  59,  226,  258,  134, 1409
  60,  316, 1449, 1448,  254
  61,  122,   11,  123,  162
  62,  124,    9,  115,  201
  63,  215,  259,  216,  175
  64,  283,  235,  190, 1435
  65,  140,   23,  135,  146
  66,  125,  168,   15,   14
  67,  371,  324,  273,  345
  68,  334, 1470,  367, 1495
  69,  368,  401,  345,  313
  70,    8,    7,  142,  148
  71,  126,   14,   13,  161
  72,    8,  148,  113,    1
  73,  232,  332, 1487,  336
  74,  125,   14,  126,  158
** ... 1519 like lines cut
*Nset, nset=_PickedSet2, internal, generate
    1,  1619,     1
*Elset, elset=_PickedSet2, internal, generate
    1,  1593,     1
** Section: tole
*Shell Section, elset=_PickedSet2, material=acier
0.5, 5
*End Part
**  
**
** ASSEMBLY
**
*Assembly, name=Assembly
**  
*Instance, name=plaque-1, part=plaque
*End Instance
**  
*Node
      1,   54.1068344,   345.893158,           0.
*Node
      2,   54.1068344,   54.1068344,           0.
*Node
      3,   345.893158,   54.1068344,           0.
*Node
      4,   345.893158,   345.893158,           0.
*Nset, nset=_PickedSet9, internal
 1,
*Nset, nset=_PickedSet11, internal
 2,
*Nset, nset=_PickedSet13, internal
 3,
*Nset, nset=_PickedSet15, internal
 4,
*Nset, nset=_PickedSet16, internal, generate
 1,  4,  1
*Elset, elset=__PickedSurf8_E3, internal, instance=plaque-1
 84, 87, 89
*Elset, elset=__PickedSurf8_E4, internal, instance=plaque-1
 145,
*Elset, elset=__PickedSurf8_E2, internal, instance=plaque-1
 147, 156, 157, 173
*Surface, type=ELEMENT, name=_PickedSurf8, internal
__PickedSurf8_E3, E3
__PickedSurf8_E4, E4
__PickedSurf8_E2, E2
*Elset, elset=__PickedSurf10_E3, internal, instance=plaque-1
 66,
*Elset, elset=__PickedSurf10_E2, internal, instance=plaque-1
  71, 150, 151, 159
*Elset, elset=__PickedSurf10_E1, internal, instance=plaque-1
 107, 158, 160
*Surface, type=ELEMENT, name=_PickedSurf10, internal
__PickedSurf10_E3, E3
__PickedSurf10_E2, E2
__PickedSurf10_E1, E1
*Elset, elset=__PickedSurf12_E3, internal, instance=plaque-1
  58,  76, 101
*Elset, elset=__PickedSurf12_E1, internal, instance=plaque-1
 70,
*Elset, elset=__PickedSurf12_E4, internal, instance=plaque-1
 72,
*Elset, elset=__PickedSurf12_E2, internal, instance=plaque-1, generate
 152,  154,    1
*Surface, type=ELEMENT, name=_PickedSurf12, internal
__PickedSurf12_E3, E3
__PickedSurf12_E1, E1
__PickedSurf12_E4, E4
__PickedSurf12_E2, E2
*Elset, elset=__PickedSurf14_E3, internal, instance=plaque-1
 79, 95
*Elset, elset=__PickedSurf14_E4, internal, instance=plaque-1
 82, 90
*Elset, elset=__PickedSurf14_E2, internal, instance=plaque-1
 165, 169, 171
*Elset, elset=__PickedSurf14_E1, internal, instance=plaque-1
 168,
*Surface, type=ELEMENT, name=_PickedSurf14, internal
__PickedSurf14_E3, E3
__PickedSurf14_E4, E4
__PickedSurf14_E2, E2
__PickedSurf14_E1, E1
** Constraint: Constraint-1
*Coupling, constraint name=Constraint-1, ref node=_PickedSet9, surface=_PickedSurf8
*Kinematic
** Constraint: Constraint-2
*Coupling, constraint name=Constraint-2, ref node=_PickedSet11, surface=_PickedSurf10
*Kinematic
** Constraint: Constraint-3
*Coupling, constraint name=Constraint-3, ref node=_PickedSet13, surface=_PickedSurf12
*Kinematic
** Constraint: Constraint-4
*Coupling, constraint name=Constraint-4, ref node=_PickedSet15, surface=_PickedSurf14
*Kinematic
*End Assembly
** 
** MATERIALS
** 
*Material, name=acier
*Density
 7.86e-09,
*Elastic
210000., 0.26
** ----------------------------------------------------------------
** 
** STEP: analyse_modale
** 
*Step, name=analyse_modale, nlgeom=NO, perturbation
*Frequency, eigensolver=Lanczos, sim, acoustic coupling=on, normalization=mass
, , 500., , , 
** 
** BOUNDARY CONDITIONS
** 
** Name: blocage Type: Symmetry/Antisymmetry/Encastre
*Boundary
_PickedSet16, ENCASTRE
** 
** OUTPUT REQUESTS
** 
*Restart, write, frequency=0
** 
** FIELD OUTPUT: F-Output-1
** 
*Output, field
*Node Output, variable=PRESELECT
** 
** HISTORY OUTPUT: H-Output-1
** 
*Output, history
*Energy Output, variable=ALL
*End Step
