*Heading
** Job name: vibration Model name: Model-1
** Generated by: Abaqus/CAE 2025
*Preprint, echo=NO, model=NO, history=NO, contact=NO
**
** PARTS
**
*Part, name=plaque
*Node
      1,   305.902649,   94.0973358,           0.
      2,   304.731079,   91.2689133,           0.
      3,   305.902649,   88.4404831,           0.
      4,   308.731079,   87.2689133,           0.
      5,   311.559509,   88.4404831,           0.
      6,   312.731079,   91.2689133,           0.
      7,   311.559509,   94.0973358,           0.
      8,   308.731079,   95.2689133,           0.
      9,   88.4404831,   94.0973358,           0.
     10,   87.2689133,   91.2689133,           0.
     11,   88.4404831,   88.4404831,           0.
     12,   91.2689133,   87.2689133,           0.
     13,   94.0973358,   88.4404831,           0.
     14,   95.2689133,   91.2689133,           0.
     15,   94.0973358,   94.0973358,           0.
     16,   91.2689133,   95.2689133,           0.
     17,   94.0973358,   305.902649,           0.
     18,   95.2689133,   308.731079,           0.
     19,   94.0973358,   311.559509,           0.
     20,   91.2689133,   312.731079,           0.
** ... 3219 like lines cut
*Element, type=S3
  1,  303,  229,  199
  2,  196,  299,  227
  3,  202,  300,  232
  4,  619,  496,  545
  5,  116,  218,  152
  6,  229,  151,  199
  7,  287, 2824,  216
  8, 2831,  342,  219
  9, 2840,  406,  454
 10, 2834,  407,  455
 11, 2824,  320,  264
 12, 2843,  343,  272
 13, 2837,  344,  273
 14, 2866,  345,  274
 15,  867,  732,  800
 16,  817,  353,  424
 17, 2852,  385,  303
 18,  497,  328,  377
 19,  396,  340, 2870
 20,  360, 2877,  465
** ... 80 like lines cut
*Element, type=S4R
 101,  152,  218,  192,  119
 102,  290,  231,  268,  319
 103,  116,    5,  134,  159
 104,    3,  117,  163,  135
 105,  117,    3,    2,  150
 106,  202,  233,  263,  300
 107,   11,  123,  162,  122
 108, 2783, 2790, 2777, 2788
 109,  124,  157,   10,    9
 110,  115,  172,   16,   15
 111,  297,  235,  169,  138
 112,  136,  149,   23,   22
 113,  220, 2812,  252,  294
 114,  125,   15,   14,  156
 115, 2838,  277, 2870, 2839
 116,  178,  128,  154,  222
 117,  118,    2,    1,  147
 118,  147,  113,  177,  210
 119,  126,  156,   14,   13
 120,  122,  158,   12,   11
** ... 3116 like lines cut
*Nset, nset=_PickedSet2, internal, generate
    1,  3239,     1
*Elset, elset=_PickedSet2, internal, generate
    1,  3236,     1
** Section: tole
*Shell Section, elset=_PickedSet2, material=acier
0.5, 5
*End Part
**  
**
** ASSEMBLY
**
*Assembly, name=Assembly
**  
*Instance, name=plaque-1, part=plaque
*End Instance
**  
*Node
      1,   91.2689133,   308.731079,           0.
*Node
      2,   91.2689133,   91.2689133,           0.
*Node
      3,   308.731079,   91.2689133,           0.
*Node
      4,   308.731079,   308.731079,           0.
*Nset, nset=_PickedSet9, internal
 1,
*Nset, nset=_PickedSet11, internal
 2,
*Nset, nset=_PickedSet13, internal
 3,
*Nset, nset=_PickedSet15, internal
 4,
*Nset, nset=_PickedSet16, internal, generate
 1,  4,  1
*Elset, elset=__PickedSurf8_E3, internal, instance=plaque-1
 112, 126, 133
*Elset, elset=__PickedSurf8_E4, internal, instance=plaque-1
 174,
*Elset, elset=__PickedSurf8_E2, internal, instance=plaque-1
 212, 228, 229, 233
*Surface, type=ELEMENT, name=_PickedSurf8, internal
__PickedSurf8_E3, E3
__PickedSurf8_E4, E4
__PickedSurf8_E2, E2
*Elset, elset=__PickedSurf10_E3, internal, instance=plaque-1
 109, 110, 119, 120
*Elset, elset=__PickedSurf10_E2, internal, instance=plaque-1
 114, 214, 216, 219
*Surface, type=ELEMENT, name=_PickedSurf10, internal
__PickedSurf10_E3, E3
__PickedSurf10_E2, E2
*Elset, elset=__PickedSurf12_E2, internal, instance=plaque-1
 105, 117, 206
*Elset, elset=__PickedSurf12_E3, internal, instance=plaque-1
 121, 146
*Elset, elset=__PickedSurf12_E4, internal, instance=plaque-1
 166,
*Elset, elset=__PickedSurf12_E1, internal, instance=plaque-1
 202, 203
*Surface, type=ELEMENT, name=_PickedSurf12, internal
__PickedSurf12_E2, E2
__PickedSurf12_E3, E3
__PickedSurf12_E4, E4
__PickedSurf12_E1, E1
*Elset, elset=__PickedSurf14_E3, internal, instance=plaque-1
 124, 136, 139, 140
*Elset, elset=__PickedSurf14_E2, internal, instance=plaque-1
 204, 222, 224, 226
*Surface, type=ELEMENT, name=_PickedSurf14, internal
__PickedSurf14_E3, E3
__PickedSurf14_E2, E2
** Constraint: Constraint-1
*Coupling, constraint name=Constraint-1, ref node=_PickedSet9, surface=_PickedSurf8
*Kinematic
** Constraint: Constraint-2
*Coupling, constraint name=Constraint-2, ref node=_PickedSet11, surface=_PickedSurf10
*Kinematic
** Constraint: Constraint-3
*Coupling, constraint name=Constraint-3, ref node=_PickedSet13, surface=_PickedSurf12
*Kinematic
** Constraint: Constraint-4
*Coupling, constraint name=Constraint-4, ref node=_PickedSet15, surface=_PickedSurf14
*Kinematic
*End Assembly
** 
** MATERIALS
** 
*Material, name=acier
*Density
 7.86e-09,
*Elastic
210000., 0.26
** ----------------------------------------------------------------
** 
** STEP: analyse_modale
** 
*Step, name=analyse_modale, nlgeom=NO, perturbation
*Frequency, eigensolver=Lanczos, sim, acoustic coupling=on, normalization=mass
, , 500., , , 
** 
** BOUNDARY CONDITIONS
** 
** Name: blocage Type: Symmetry/Antisymmetry/Encastre
*Boundary
_PickedSet16, ENCASTRE
** 
** OUTPUT REQUESTS
** 
*Restart, write, frequency=0
** 
** FIELD OUTPUT: F-Output-1
** 
*Output, field
*Node Output, variable=PRESELECT
** 
** HISTORY OUTPUT: H-Output-1
** 
*Output, history
*Energy Output, variable=ALL
*End Step
