*Heading
** Job name: vibration Model name: Model-1
** Generated by: Abaqus/CAE 2025
*Preprint, echo=NO, model=NO, history=NO, contact=NO
**
** PARTS
**
*Part, name=plaque
*Node
      1,   220.622833,   179.377167,           0.
      2,   219.451263,   176.548737,           0.
      3,   220.622833,   173.720322,           0.
      4,   223.451263,   172.548737,           0.
      5,   226.279678,   173.720322,           0.
      6,   227.451263,   176.548737,           0.
      7,   226.279678,   179.377167,           0.
      8,   223.451263,   180.548737,           0.
      9,   173.720322,   179.377167,           0.
     10,   172.548737,   176.548737,           0.
     11,   173.720322,   173.720322,           0.
     12,   176.548737,   172.548737,           0.
     13,   179.377167,   173.720322,           0.
     14,   180.548737,   176.548737,           0.
     15,   179.377167,   179.377167,           0.
     16,   176.548737,   180.548737,           0.
     17,   179.377167,   220.622833,           0.
     18,   180.548737,   223.451263,           0.
     19,   179.377167,   226.279678,           0.
     20,   176.548737,   227.451263,           0.
** ... 1838 like lines cut
*Element, type=S3
 1, 1757,  798,  869
 2,  251,  157,  183
 3,  160,  142,    8
 4,  377,  272,  347
 5,  342,  234,  282
 6,  387,  280,  335
 7, 1675,  574,  657
 8,  658,  576,  599
 9,  811,  693,  728
10,  597,  578,  540
11, 1618,  600,  553
12,  577,  503,  434
13, 1702,  572,  695
14,  831, 1656,  775
15, 1655,  774,  682
16,  463,  660,  515
17,  637,  561,  586
18,  709,  663,  664
19,  696,  565,  647
20, 1666,  779,  677
** ... 44 like lines cut
*Element, type=S4R
  65,  297,  211,  255, 1610
  66,  539,  350,  288,  402
  67,    5,  118,  164,  117
  68,  218,  262,  169,  127
  69,   13,  126,  149,  125
  70,  300,  212,  166,  254
  71,   11,  120,  166,  119
  72,  121,  259,  172,   10
  73, 1314, 1574, 1413, 1443
  74,  150,    9,  113,  177
  75,  244,  278,  230,  200
  76,  749, 1680,  702,  745
  77,   15,  123,  162,  141
  78,  162,  123,  194,  241
  79,  116,  160,    8,    7
  80,  123,   15,   14,  156
  81,  197,  142,  190,  233
  82,  125,  156,   14,   13
  83,  119,  174,   12,   11
  84,  209,  129,  157,  251
** ... 1753 like lines cut
*Nset, nset=_PickedSet2, internal, generate
    1,  1858,     1
*Elset, elset=_PickedSet2, internal, generate
    1,  1837,     1
** Section: tole
*Shell Section, elset=_PickedSet2, material=acier
0.5, 5
*End Part
**  
**
** ASSEMBLY
**
*Assembly, name=Assembly
**  
*Instance, name=plaque-1, part=plaque
*End Instance
**  
*Node
      1,   176.548737,   223.451263,           0.
*Node
      2,   176.548737,   176.548737,           0.
*Node
      3,   223.451263,   176.548737,           0.
*Node
      4,   223.451263,   223.451263,           0.
*Nset, nset=_PickedSet9, internal
 1,
*Nset, nset=_PickedSet11, internal
 2,
*Nset, nset=_PickedSet13, internal
 3,
*Nset, nset=_PickedSet15, internal
 4,
*Nset, nset=_PickedSet16, internal, generate
 1,  4,  1
*Elset, elset=__PickedSurf8_E3, internal, instance=plaque-1
  87, 100
*Elset, elset=__PickedSurf8_E2, internal, instance=plaque-1
 172, 194, 195, 197, 199
*Elset, elset=__PickedSurf8_E1, internal, instance=plaque-1
 180,
*Surface, type=ELEMENT, name=_PickedSurf8, internal
__PickedSurf8_E3, E3
__PickedSurf8_E2, E2
__PickedSurf8_E1, E1
*Elset, elset=__PickedSurf10_E2, internal, instance=plaque-1
  80, 170, 177, 184
*Elset, elset=__PickedSurf10_E3, internal, instance=plaque-1
 82, 83
*Elset, elset=__PickedSurf10_E4, internal, instance=plaque-1
 161,
*Elset, elset=__PickedSurf10_E1, internal, instance=plaque-1
 171,
*Surface, type=ELEMENT, name=_PickedSurf10, internal
__PickedSurf10_E2, E2
__PickedSurf10_E3, E3
__PickedSurf10_E4, E4
__PickedSurf10_E1, E1
*Elset, elset=__PickedSurf12_E3, internal, instance=plaque-1
  79, 109, 174
*Elset, elset=__PickedSurf12_E4, internal, instance=plaque-1
 114,
*Elset, elset=__PickedSurf12_E2, internal, instance=plaque-1
 175, 183, 186
*Elset, elset=__PickedSurf12_E1, internal, instance=plaque-1
 176,
*Surface, type=ELEMENT, name=_PickedSurf12, internal
__PickedSurf12_E3, E3
__PickedSurf12_E4, E4
__PickedSurf12_E2, E2
__PickedSurf12_E1, E1
*Elset, elset=__PickedSurf14_E3, internal, instance=plaque-1
 88, 90
*Elset, elset=__PickedSurf14_E2, internal, instance=plaque-1
 107, 188, 190, 191
*Elset, elset=__PickedSurf14_E4, internal, instance=plaque-1
 130,
*Elset, elset=__PickedSurf14_E1, internal, instance=plaque-1
 173,
*Surface, type=ELEMENT, name=_PickedSurf14, internal
__PickedSurf14_E3, E3
__PickedSurf14_E2, E2
__PickedSurf14_E4, E4
__PickedSurf14_E1, E1
** Constraint: Constraint-1
*Coupling, constraint name=Constraint-1, ref node=_PickedSet9, surface=_PickedSurf8
*Kinematic
** Constraint: Constraint-2
*Coupling, constraint name=Constraint-2, ref node=_PickedSet11, surface=_PickedSurf10
*Kinematic
** Constraint: Constraint-3
*Coupling, constraint name=Constraint-3, ref node=_PickedSet13, surface=_PickedSurf12
*Kinematic
** Constraint: Constraint-4
*Coupling, constraint name=Constraint-4, ref node=_PickedSet15, surface=_PickedSurf14
*Kinematic
*End Assembly
** 
** MATERIALS
** 
*Material, name=acier
*Density
 7.86e-09,
*Elastic
210000., 0.26
** ----------------------------------------------------------------
** 
** STEP: analyse_modale
** 
*Step, name=analyse_modale, nlgeom=NO, perturbation
*Frequency, eigensolver=Lanczos, sim, acoustic coupling=on, normalization=mass
, , 500., , , 
** 
** BOUNDARY CONDITIONS
** 
** Name: blocage Type: Symmetry/Antisymmetry/Encastre
*Boundary
_PickedSet16, ENCASTRE
** 
** OUTPUT REQUESTS
** 
*Restart, write, frequency=0
** 
** FIELD OUTPUT: F-Output-1
** 
*Output, field
*Node Output, variable=PRESELECT
** 
** HISTORY OUTPUT: H-Output-1
** 
*Output, history
*Energy Output, variable=ALL
*End Step
