*Heading
** Job name: vibration Model name: Model-1
** Generated by: Abaqus/CAE 2025
*Preprint, echo=NO, model=NO, history=NO, contact=NO
**
** PARTS
**
*Part, name=plaque
*Node
      1,   298.748688,   101.251297,           0.
      2,   297.577118,   98.4228745,           0.
      3,   298.748688,   95.5944443,           0.
      4,   301.577118,   94.4228745,           0.
      5,   304.405548,   95.5944443,           0.
      6,   305.577118,   98.4228745,           0.
      7,   304.405548,   101.251297,           0.
      8,   301.577118,   102.422874,           0.
      9,   95.5944443,   101.251297,           0.
     10,   94.4228745,   98.4228745,           0.
     11,   95.5944443,   95.5944443,           0.
     12,   98.4228745,   94.4228745,           0.
     13,   101.251297,   95.5944443,           0.
     14,   102.422874,   98.4228745,           0.
     15,   101.251297,   101.251297,           0.
     16,   98.4228745,   102.422874,           0.
     17,   101.251297,   298.748688,           0.
     18,   102.422874,   301.577118,           0.
     19,   101.251297,   304.405548,           0.
     20,   98.4228745,   305.577118,           0.
** ... 3606 like lines cut
*Element, type=S3
  1,  195,  297,  231
  2,  263,  202,  227
  3,  253,  287,  191
  4,  552,  426,  489
  5,  648,  647,  496
  6, 3200,  433,  330
  7,  279,  395,  354
  8,  428,  373,  320
  9,  635,  498,  561
 10, 3212,  454,  402
 11,  591,  521,  513
 12,  607,  477,  537
 13, 1296, 1032, 1132
 14,  853,  701,  629
 15,  708, 3023,  854
 16,  730,  592,  666
 17,  689,  609,  545
 18, 1159,  907, 1096
 19,  801,  654,  725
 20,  580,  806,  657
** ... 84 like lines cut
*Element, type=S4R
 105,  219,  194,  119,  153
 106,  134,  159,    5,    4
 107,  117,  163,    3,    2
 108,  234,  264,  205,  196
 109,  123,  162,   11,   10
 110,   94, 3113, 3067,   95
 111,  123,   10,  124,  157
 112,   16,  115,  172,  141
 113,  253,  191,  168,  236
 114,  141,  170,    9,   16
 115,  136,  149,   23,   22
 116,  172, 3135, 3143,  215
 117,   15,   14,  125,  146
 118,  306, 3144, 3133,  352
 119,  178,  128,  151,  220
 120,  118,  150,  117,    2
 121,  113,  147,    1,    8
 122,   14,  126,  156,  125
 123,   12,  122,  158,  127
 124,  207,  232,  302,  269
** ... 3501 like lines cut
*Nset, nset=_PickedSet2, internal, generate
    1,  3626,     1
*Elset, elset=_PickedSet2, internal, generate
    1,  3625,     1
** Section: tole
*Shell Section, elset=_PickedSet2, material=acier
0.5, 5
*End Part
**  
**
** ASSEMBLY
**
*Assembly, name=Assembly
**  
*Instance, name=plaque-1, part=plaque
*End Instance
**  
*Node
      1,   98.4228745,   301.577118,           0.
*Node
      2,   98.4228745,   98.4228745,           0.
*Node
      3,   301.577118,   98.4228745,           0.
*Node
      4,   301.577118,   301.577118,           0.
*Nset, nset=_PickedSet9, internal
 1,
*Nset, nset=_PickedSet11, internal
 2,
*Nset, nset=_PickedSet13, internal
 3,
*Nset, nset=_PickedSet15, internal
 4,
*Nset, nset=_PickedSet16, internal, generate
 1,  4,  1
*Elset, elset=__PickedSurf8_E3, internal, instance=plaque-1
 115, 131, 139
*Elset, elset=__PickedSurf8_E4, internal, instance=plaque-1
 180,
*Elset, elset=__PickedSurf8_E2, internal, instance=plaque-1
 217, 231, 232, 237
*Surface, type=ELEMENT, name=_PickedSurf8, internal
__PickedSurf8_E3, E3
__PickedSurf8_E4, E4
__PickedSurf8_E2, E2
*Elset, elset=__PickedSurf10_E3, internal, instance=plaque-1
 109, 114, 159
*Elset, elset=__PickedSurf10_E1, internal, instance=plaque-1
 117,
*Elset, elset=__PickedSurf10_E4, internal, instance=plaque-1
 196,
*Elset, elset=__PickedSurf10_E2, internal, instance=plaque-1
 210, 219, 221
*Surface, type=ELEMENT, name=_PickedSurf10, internal
__PickedSurf10_E3, E3
__PickedSurf10_E1, E1
__PickedSurf10_E4, E4
__PickedSurf10_E2, E2
*Elset, elset=__PickedSurf12_E3, internal, instance=plaque-1
 106, 107, 121, 148
*Elset, elset=__PickedSurf12_E2, internal, instance=plaque-1
 207, 211, 213, 228
*Surface, type=ELEMENT, name=_PickedSurf12, internal
__PickedSurf12_E3, E3
__PickedSurf12_E2, E2
*Elset, elset=__PickedSurf14_E3, internal, instance=plaque-1
 126, 128, 130, 144
*Elset, elset=__PickedSurf14_E4, internal, instance=plaque-1
 165, 189
*Elset, elset=__PickedSurf14_E2, internal, instance=plaque-1
 208, 223
*Surface, type=ELEMENT, name=_PickedSurf14, internal
__PickedSurf14_E3, E3
__PickedSurf14_E4, E4
__PickedSurf14_E2, E2
** Constraint: Constraint-1
*Coupling, constraint name=Constraint-1, ref node=_PickedSet9, surface=_PickedSurf8
*Kinematic
** Constraint: Constraint-2
*Coupling, constraint name=Constraint-2, ref node=_PickedSet11, surface=_PickedSurf10
*Kinematic
** Constraint: Constraint-3
*Coupling, constraint name=Constraint-3, ref node=_PickedSet13, surface=_PickedSurf12
*Kinematic
** Constraint: Constraint-4
*Coupling, constraint name=Constraint-4, ref node=_PickedSet15, surface=_PickedSurf14
*Kinematic
*End Assembly
** 
** MATERIALS
** 
*Material, name=acier
*Density
 7.86e-09,
*Elastic
210000., 0.26
** ----------------------------------------------------------------
** 
** STEP: analyse_modale
** 
*Step, name=analyse_modale, nlgeom=NO, perturbation
*Frequency, eigensolver=Lanczos, sim, acoustic coupling=on, normalization=mass
, , 500., , , 
** 
** BOUNDARY CONDITIONS
** 
** Name: blocage Type: Symmetry/Antisymmetry/Encastre
*Boundary
_PickedSet16, ENCASTRE
** 
** OUTPUT REQUESTS
** 
*Restart, write, frequency=0
** 
** FIELD OUTPUT: F-Output-1
** 
*Output, field
*Node Output, variable=PRESELECT
** 
** HISTORY OUTPUT: H-Output-1
** 
*Output, history
*Energy Output, variable=ALL
*End Step
